
---------- Begin Simulation Statistics ----------
final_tick                                55616573000                       # Number of ticks from beginning of simulation (restored from checkpoints and never reset)
host_inst_rate                                1527570                       # Simulator instruction rate (inst/s)
host_mem_usage                                 775008                       # Number of bytes of host memory used
host_op_rate                                  2748855                       # Simulator op (including micro ops) rate (op/s)
host_seconds                                    34.43                       # Real time elapsed on the host
host_tick_rate                             1615177589                       # Simulator tick rate (ticks/s)
sim_freq                                 1000000000000                       # Frequency of simulated ticks
sim_insts                                    52599775                       # Number of instructions simulated
sim_ops                                      94653261                       # Number of ops (including micro ops) simulated
sim_seconds                                  0.055617                       # Number of seconds simulated
sim_ticks                                 55616573000                       # Number of ticks simulated
system.cpu.Branches                          10319846                       # Number of branches fetched
system.cpu.committedInsts                    52599775                       # Number of instructions committed
system.cpu.committedOps                      94653261                       # Number of ops (including micro ops) committed
system.cpu.dtb.rdAccesses                    13690323                       # TLB accesses on read requests
system.cpu.dtb.rdMisses                         33390                       # TLB misses on read requests
system.cpu.dtb.wrAccesses                     6055885                       # TLB accesses on write requests
system.cpu.dtb.wrMisses                          7335                       # TLB misses on write requests
system.cpu.dtb2.rdAccesses                          0                       # TLB accesses on read requests
system.cpu.dtb2.rdMisses                            0                       # TLB misses on read requests
system.cpu.dtb2.wrAccesses                          0                       # TLB accesses on write requests
system.cpu.dtb2.wrMisses                            0                       # TLB misses on write requests
system.cpu.idle_fraction                     0.000000                       # Percentage of idle cycles
system.cpu.itb.rdAccesses                           0                       # TLB accesses on read requests
system.cpu.itb.rdMisses                             0                       # TLB misses on read requests
system.cpu.itb.wrAccesses                    69180512                       # TLB accesses on write requests
system.cpu.itb.wrMisses                           541                       # TLB misses on write requests
system.cpu.not_idle_fraction                 1.000000                       # Percentage of non-idle cycles
system.cpu.numCycles                        111233998                       # number of cpu cycles simulated
system.cpu.numWorkItemsCompleted                    0                       # number of work items this cpu completed
system.cpu.numWorkItemsStarted                      0                       # number of work items this cpu started
system.cpu.num_busy_cycles               111233997.998000                       # Number of busy cycles
system.cpu.num_cc_register_reads             56516070                       # number of times the CC registers were read
system.cpu.num_cc_register_writes            33286959                       # number of times the CC registers were written
system.cpu.num_conditional_control_insts      9175524                       # number of instructions that are conditional controls
system.cpu.num_fp_alu_accesses               15209862                       # Number of float alu accesses
system.cpu.num_fp_insts                      15209862                       # number of float instructions
system.cpu.num_fp_register_reads             16325090                       # number of times the floating registers were read
system.cpu.num_fp_register_writes            11678607                       # number of times the floating registers were written
system.cpu.num_func_calls                      618960                       # number of times a function call or return occured
system.cpu.num_idle_cycles                   0.002000                       # Number of idle cycles
system.cpu.num_int_alu_accesses              84503095                       # Number of integer alu accesses
system.cpu.num_int_insts                     84503095                       # number of integer instructions
system.cpu.num_int_register_reads           163612436                       # number of times the integer registers were read
system.cpu.num_int_register_writes           64820942                       # number of times the integer registers were written
system.cpu.num_load_insts                    13685463                       # Number of load instructions
system.cpu.num_mem_refs                      19740053                       # number of memory refs
system.cpu.num_store_insts                    6054590                       # Number of store instructions
system.cpu.num_vec_alu_accesses                     0                       # Number of vector alu accesses
system.cpu.num_vec_insts                            0                       # number of vector instructions
system.cpu.num_vec_register_reads                   0                       # number of times the vector registers were read
system.cpu.num_vec_register_writes                  0                       # number of times the vector registers were written
system.cpu.op_class::No_OpClass                628162      0.66%      0.66% # Class of executed instruction
system.cpu.op_class::IntAlu                  65731171     69.44%     70.11% # Class of executed instruction
system.cpu.op_class::IntMult                    28336      0.03%     70.14% # Class of executed instruction
system.cpu.op_class::IntDiv                    181781      0.19%     70.33% # Class of executed instruction
system.cpu.op_class::FloatAdd                 2839822      3.00%     73.33% # Class of executed instruction
system.cpu.op_class::FloatCmp                       0      0.00%     73.33% # Class of executed instruction
system.cpu.op_class::FloatCvt                    2528      0.00%     73.33% # Class of executed instruction
system.cpu.op_class::FloatMult                      0      0.00%     73.33% # Class of executed instruction
system.cpu.op_class::FloatMultAcc                   0      0.00%     73.33% # Class of executed instruction
system.cpu.op_class::FloatDiv                       0      0.00%     73.33% # Class of executed instruction
system.cpu.op_class::FloatMisc                      0      0.00%     73.33% # Class of executed instruction
system.cpu.op_class::FloatSqrt                      0      0.00%     73.33% # Class of executed instruction
system.cpu.op_class::SimdAdd                    27198      0.03%     73.36% # Class of executed instruction
system.cpu.op_class::SimdAddAcc                     0      0.00%     73.36% # Class of executed instruction
system.cpu.op_class::SimdAlu                  1918644      2.03%     75.39% # Class of executed instruction
system.cpu.op_class::SimdCmp                     7668      0.01%     75.40% # Class of executed instruction
system.cpu.op_class::SimdCvt                   107550      0.11%     75.51% # Class of executed instruction
system.cpu.op_class::SimdMisc                  172565      0.18%     75.69% # Class of executed instruction
system.cpu.op_class::SimdMult                       0      0.00%     75.69% # Class of executed instruction
system.cpu.op_class::SimdMultAcc                    0      0.00%     75.69% # Class of executed instruction
system.cpu.op_class::SimdShift                   5739      0.01%     75.70% # Class of executed instruction
system.cpu.op_class::SimdShiftAcc                   0      0.00%     75.70% # Class of executed instruction
system.cpu.op_class::SimdDiv                        0      0.00%     75.70% # Class of executed instruction
system.cpu.op_class::SimdSqrt                       0      0.00%     75.70% # Class of executed instruction
system.cpu.op_class::SimdFloatAdd              511623      0.54%     76.24% # Class of executed instruction
system.cpu.op_class::SimdFloatAlu                   0      0.00%     76.24% # Class of executed instruction
system.cpu.op_class::SimdFloatCmp               34194      0.04%     76.28% # Class of executed instruction
system.cpu.op_class::SimdFloatCvt             2007728      2.12%     78.40% # Class of executed instruction
system.cpu.op_class::SimdFloatDiv               77415      0.08%     78.48% # Class of executed instruction
system.cpu.op_class::SimdFloatMisc                  0      0.00%     78.48% # Class of executed instruction
system.cpu.op_class::SimdFloatMult             631084      0.67%     79.14% # Class of executed instruction
system.cpu.op_class::SimdFloatMultAcc               0      0.00%     79.14% # Class of executed instruction
system.cpu.op_class::SimdFloatSqrt                  0      0.00%     79.14% # Class of executed instruction
system.cpu.op_class::SimdReduceAdd                  0      0.00%     79.14% # Class of executed instruction
system.cpu.op_class::SimdReduceAlu                  0      0.00%     79.14% # Class of executed instruction
system.cpu.op_class::SimdReduceCmp                  0      0.00%     79.14% # Class of executed instruction
system.cpu.op_class::SimdFloatReduceAdd             0      0.00%     79.14% # Class of executed instruction
system.cpu.op_class::SimdFloatReduceCmp             0      0.00%     79.14% # Class of executed instruction
system.cpu.op_class::SimdAes                        0      0.00%     79.14% # Class of executed instruction
system.cpu.op_class::SimdAesMix                     0      0.00%     79.14% # Class of executed instruction
system.cpu.op_class::SimdSha1Hash                   0      0.00%     79.14% # Class of executed instruction
system.cpu.op_class::SimdSha1Hash2                  0      0.00%     79.14% # Class of executed instruction
system.cpu.op_class::SimdSha256Hash                 0      0.00%     79.14% # Class of executed instruction
system.cpu.op_class::SimdSha256Hash2                0      0.00%     79.14% # Class of executed instruction
system.cpu.op_class::SimdShaSigma2                  0      0.00%     79.14% # Class of executed instruction
system.cpu.op_class::SimdShaSigma3                  0      0.00%     79.14% # Class of executed instruction
system.cpu.op_class::SimdPredAlu                    0      0.00%     79.14% # Class of executed instruction
system.cpu.op_class::MemRead                  9611567     10.15%     89.30% # Class of executed instruction
system.cpu.op_class::MemWrite                 4535553      4.79%     94.09% # Class of executed instruction
system.cpu.op_class::FloatMemRead             4073896      4.30%     98.40% # Class of executed instruction
system.cpu.op_class::FloatMemWrite            1519037      1.60%    100.00% # Class of executed instruction
system.cpu.op_class::IprAccess                      0      0.00%    100.00% # Class of executed instruction
system.cpu.op_class::InstPrefetch                   0      0.00%    100.00% # Class of executed instruction
system.cpu.op_class::total                   94653261                       # Class of executed instruction
system.cpu.workload.numSyscalls                   128                       # Number of system calls
system.membus.snoop_filter.hit_multi_requests            2                       # Number of requests hitting in the snoop filter with multiple (>1) holders of the requested data.
system.membus.snoop_filter.hit_multi_snoops            0                       # Number of snoops hitting in the snoop filter with multiple (>1) holders of the requested data.
system.membus.snoop_filter.hit_single_requests       833508                       # Number of requests hitting in the snoop filter with a single holder of the requested data.
system.membus.snoop_filter.hit_single_snoops            0                       # Number of snoops hitting in the snoop filter with a single holder of the requested data.
system.membus.snoop_filter.tot_requests       1668552                       # Total number of requests made to the snoop filter.
system.membus.snoop_filter.tot_snoops               0                       # Total number of snoops made to the snoop filter.
system.membus.pwrStateResidencyTicks::UNDEFINED  55616573000                       # Cumulative time (in ticks) in various power states
system.membus.trans_dist::ReadResp             637038                       # Transaction distribution
system.membus.trans_dist::WritebackDirty       304992                       # Transaction distribution
system.membus.trans_dist::WritebackClean        87259                       # Transaction distribution
system.membus.trans_dist::CleanEvict           441257                       # Transaction distribution
system.membus.trans_dist::ReadExReq            198006                       # Transaction distribution
system.membus.trans_dist::ReadExResp           198006                       # Transaction distribution
system.membus.trans_dist::ReadCleanReq          87771                       # Transaction distribution
system.membus.trans_dist::ReadSharedReq        549267                       # Transaction distribution
system.membus.pkt_count_system.cpu.icache.mem_side::system.mem_ctrls.port       262801                       # Packet count per connected master and slave (bytes)
system.membus.pkt_count_system.cpu.icache.mem_side::total       262801                       # Packet count per connected master and slave (bytes)
system.membus.pkt_count_system.cpu.dcache.mem_side::system.mem_ctrls.port      2240795                       # Packet count per connected master and slave (bytes)
system.membus.pkt_count_system.cpu.dcache.mem_side::total      2240795                       # Packet count per connected master and slave (bytes)
system.membus.pkt_count::total                2503596                       # Packet count per connected master and slave (bytes)
system.membus.pkt_size_system.cpu.icache.mem_side::system.mem_ctrls.port     11201920                       # Cumulative packet size per connected master and slave (bytes)
system.membus.pkt_size_system.cpu.icache.mem_side::total     11201920                       # Cumulative packet size per connected master and slave (bytes)
system.membus.pkt_size_system.cpu.dcache.mem_side::system.mem_ctrls.port     67344960                       # Cumulative packet size per connected master and slave (bytes)
system.membus.pkt_size_system.cpu.dcache.mem_side::total     67344960                       # Cumulative packet size per connected master and slave (bytes)
system.membus.pkt_size::total                78546880                       # Cumulative packet size per connected master and slave (bytes)
system.membus.snoops                                0                       # Total snoops (count)
system.membus.snoopTraffic                          0                       # Total snoop traffic (bytes)
system.membus.snoop_fanout::samples            835044                       # Request fanout histogram
system.membus.snoop_fanout::mean             0.000002                       # Request fanout histogram
system.membus.snoop_fanout::stdev            0.001548                       # Request fanout histogram
system.membus.snoop_fanout::underflows              0      0.00%      0.00% # Request fanout histogram
system.membus.snoop_fanout::0                  835042    100.00%    100.00% # Request fanout histogram
system.membus.snoop_fanout::1                       2      0.00%    100.00% # Request fanout histogram
system.membus.snoop_fanout::2                       0      0.00%    100.00% # Request fanout histogram
system.membus.snoop_fanout::3                       0      0.00%    100.00% # Request fanout histogram
system.membus.snoop_fanout::4                       0      0.00%    100.00% # Request fanout histogram
system.membus.snoop_fanout::overflows               0      0.00%    100.00% # Request fanout histogram
system.membus.snoop_fanout::min_value               0                       # Request fanout histogram
system.membus.snoop_fanout::max_value               1                       # Request fanout histogram
system.membus.snoop_fanout::total              835044                       # Request fanout histogram
system.voltage_domain.voltage                       1                       # Voltage in Volts
system.clk_domain.clock                          1000                       # Clock period in ticks
system.cpu_voltage_domain.voltage                   1                       # Voltage in Volts
system.mem_ctrls.pwrStateResidencyTicks::UNDEFINED  55616573000                       # Cumulative time (in ticks) in various power states
system.mem_ctrls.bytes_read::.cpu.inst        5617344                       # Number of bytes read from this memory
system.mem_ctrls.bytes_read::.cpu.data       47825472                       # Number of bytes read from this memory
system.mem_ctrls.bytes_read::total           53442816                       # Number of bytes read from this memory
system.mem_ctrls.bytes_inst_read::.cpu.inst      5617344                       # Number of instructions bytes read from this memory
system.mem_ctrls.bytes_inst_read::total       5617344                       # Number of instructions bytes read from this memory
system.mem_ctrls.bytes_written::.writebacks     19519488                       # Number of bytes written to this memory
system.mem_ctrls.bytes_written::total        19519488                       # Number of bytes written to this memory
system.mem_ctrls.num_reads::.cpu.inst           87771                       # Number of read requests responded to by this memory
system.mem_ctrls.num_reads::.cpu.data          747273                       # Number of read requests responded to by this memory
system.mem_ctrls.num_reads::total              835044                       # Number of read requests responded to by this memory
system.mem_ctrls.num_writes::.writebacks       304992                       # Number of write requests responded to by this memory
system.mem_ctrls.num_writes::total             304992                       # Number of write requests responded to by this memory
system.mem_ctrls.bw_read::.cpu.inst         101001261                       # Total read bandwidth from this memory (bytes/s)
system.mem_ctrls.bw_read::.cpu.data         859914040                       # Total read bandwidth from this memory (bytes/s)
system.mem_ctrls.bw_read::total             960915301                       # Total read bandwidth from this memory (bytes/s)
system.mem_ctrls.bw_inst_read::.cpu.inst    101001261                       # Instruction read bandwidth from this memory (bytes/s)
system.mem_ctrls.bw_inst_read::total        101001261                       # Instruction read bandwidth from this memory (bytes/s)
system.mem_ctrls.bw_write::.writebacks      350965314                       # Write bandwidth from this memory (bytes/s)
system.mem_ctrls.bw_write::total            350965314                       # Write bandwidth from this memory (bytes/s)
system.mem_ctrls.bw_total::.writebacks      350965314                       # Total bandwidth to/from this memory (bytes/s)
system.mem_ctrls.bw_total::.cpu.inst        101001261                       # Total bandwidth to/from this memory (bytes/s)
system.mem_ctrls.bw_total::.cpu.data        859914040                       # Total bandwidth to/from this memory (bytes/s)
system.mem_ctrls.bw_total::total           1311880615                       # Total bandwidth to/from this memory (bytes/s)
system.mem_ctrls.priorityMinLatency      0.000000000000                       # per QoS priority minimum request to response latency (s)
system.mem_ctrls.priorityMaxLatency      0.000000000000                       # per QoS priority maximum request to response latency (s)
system.mem_ctrls.numReadWriteTurnArounds            0                       # Number of turnarounds from READ to WRITE
system.mem_ctrls.numWriteReadTurnArounds            0                       # Number of turnarounds from WRITE to READ
system.mem_ctrls.numStayReadState                   0                       # Number of times bus staying in READ state
system.mem_ctrls.numStayWriteState                  0                       # Number of times bus staying in WRITE state
system.mem_ctrls.readReqs                           0                       # Number of read requests accepted
system.mem_ctrls.writeReqs                          0                       # Number of write requests accepted
system.mem_ctrls.readBursts                         0                       # Number of DRAM read bursts, including those serviced by the write queue
system.mem_ctrls.writeBursts                        0                       # Number of DRAM write bursts, including those merged in the write queue
system.mem_ctrls.servicedByWrQ                      0                       # Number of DRAM read bursts serviced by the write queue
system.mem_ctrls.mergedWrBursts                     0                       # Number of DRAM write bursts merged with an existing one
system.mem_ctrls.neitherReadNorWriteReqs            0                       # Number of requests that are neither read nor write
system.mem_ctrls.perBankRdBursts::0                 0                       # Per bank write bursts
system.mem_ctrls.perBankRdBursts::1                 0                       # Per bank write bursts
system.mem_ctrls.perBankRdBursts::2                 0                       # Per bank write bursts
system.mem_ctrls.perBankRdBursts::3                 0                       # Per bank write bursts
system.mem_ctrls.perBankRdBursts::4                 0                       # Per bank write bursts
system.mem_ctrls.perBankRdBursts::5                 0                       # Per bank write bursts
system.mem_ctrls.perBankRdBursts::6                 0                       # Per bank write bursts
system.mem_ctrls.perBankRdBursts::7                 0                       # Per bank write bursts
system.mem_ctrls.perBankRdBursts::8                 0                       # Per bank write bursts
system.mem_ctrls.perBankRdBursts::9                 0                       # Per bank write bursts
system.mem_ctrls.perBankRdBursts::10                0                       # Per bank write bursts
system.mem_ctrls.perBankRdBursts::11                0                       # Per bank write bursts
system.mem_ctrls.perBankRdBursts::12                0                       # Per bank write bursts
system.mem_ctrls.perBankRdBursts::13                0                       # Per bank write bursts
system.mem_ctrls.perBankRdBursts::14                0                       # Per bank write bursts
system.mem_ctrls.perBankRdBursts::15                0                       # Per bank write bursts
system.mem_ctrls.perBankWrBursts::0                 0                       # Per bank write bursts
system.mem_ctrls.perBankWrBursts::1                 0                       # Per bank write bursts
system.mem_ctrls.perBankWrBursts::2                 0                       # Per bank write bursts
system.mem_ctrls.perBankWrBursts::3                 0                       # Per bank write bursts
system.mem_ctrls.perBankWrBursts::4                 0                       # Per bank write bursts
system.mem_ctrls.perBankWrBursts::5                 0                       # Per bank write bursts
system.mem_ctrls.perBankWrBursts::6                 0                       # Per bank write bursts
system.mem_ctrls.perBankWrBursts::7                 0                       # Per bank write bursts
system.mem_ctrls.perBankWrBursts::8                 0                       # Per bank write bursts
system.mem_ctrls.perBankWrBursts::9                 0                       # Per bank write bursts
system.mem_ctrls.perBankWrBursts::10                0                       # Per bank write bursts
system.mem_ctrls.perBankWrBursts::11                0                       # Per bank write bursts
system.mem_ctrls.perBankWrBursts::12                0                       # Per bank write bursts
system.mem_ctrls.perBankWrBursts::13                0                       # Per bank write bursts
system.mem_ctrls.perBankWrBursts::14                0                       # Per bank write bursts
system.mem_ctrls.perBankWrBursts::15                0                       # Per bank write bursts
system.mem_ctrls.avgRdQLen                       0.00                       # Average read queue length when enqueuing
system.mem_ctrls.avgWrQLen                       0.00                       # Average write queue length when enqueuing
system.mem_ctrls.totQLat                            0                       # Total ticks spent queuing
system.mem_ctrls.totBusLat                          0                       # Total ticks spent in databus transfers
system.mem_ctrls.totMemAccLat                       0                       # Total ticks spent from burst creation until serviced by the DRAM
system.mem_ctrls.avgQLat                          nan                       # Average queueing delay per DRAM burst
system.mem_ctrls.avgBusLat                        nan                       # Average bus latency per DRAM burst
system.mem_ctrls.avgMemAccLat                     nan                       # Average memory access latency per DRAM burst
system.mem_ctrls.numRdRetry                         0                       # Number of times read queue was full causing retry
system.mem_ctrls.numWrRetry                         0                       # Number of times write queue was full causing retry
system.mem_ctrls.readRowHits                        0                       # Number of row buffer hits during reads
system.mem_ctrls.writeRowHits                       0                       # Number of row buffer hits during writes
system.mem_ctrls.readRowHitRate                   nan                       # Row buffer hit rate for reads
system.mem_ctrls.writeRowHitRate                  nan                       # Row buffer hit rate for writes
system.mem_ctrls.readPktSize::0                     0                       # Read request sizes (log2)
system.mem_ctrls.readPktSize::1                     0                       # Read request sizes (log2)
system.mem_ctrls.readPktSize::2                     0                       # Read request sizes (log2)
system.mem_ctrls.readPktSize::3                     0                       # Read request sizes (log2)
system.mem_ctrls.readPktSize::4                     0                       # Read request sizes (log2)
system.mem_ctrls.readPktSize::5                     0                       # Read request sizes (log2)
system.mem_ctrls.readPktSize::6                     0                       # Read request sizes (log2)
system.mem_ctrls.writePktSize::0                    0                       # Write request sizes (log2)
system.mem_ctrls.writePktSize::1                    0                       # Write request sizes (log2)
system.mem_ctrls.writePktSize::2                    0                       # Write request sizes (log2)
system.mem_ctrls.writePktSize::3                    0                       # Write request sizes (log2)
system.mem_ctrls.writePktSize::4                    0                       # Write request sizes (log2)
system.mem_ctrls.writePktSize::5                    0                       # Write request sizes (log2)
system.mem_ctrls.writePktSize::6                    0                       # Write request sizes (log2)
system.mem_ctrls.rdQLenPdf::0                       0                       # What read queue length does an incoming req see
system.mem_ctrls.rdQLenPdf::1                       0                       # What read queue length does an incoming req see
system.mem_ctrls.rdQLenPdf::2                       0                       # What read queue length does an incoming req see
system.mem_ctrls.rdQLenPdf::3                       0                       # What read queue length does an incoming req see
system.mem_ctrls.rdQLenPdf::4                       0                       # What read queue length does an incoming req see
system.mem_ctrls.rdQLenPdf::5                       0                       # What read queue length does an incoming req see
system.mem_ctrls.rdQLenPdf::6                       0                       # What read queue length does an incoming req see
system.mem_ctrls.rdQLenPdf::7                       0                       # What read queue length does an incoming req see
system.mem_ctrls.rdQLenPdf::8                       0                       # What read queue length does an incoming req see
system.mem_ctrls.rdQLenPdf::9                       0                       # What read queue length does an incoming req see
system.mem_ctrls.rdQLenPdf::10                      0                       # What read queue length does an incoming req see
system.mem_ctrls.rdQLenPdf::11                      0                       # What read queue length does an incoming req see
system.mem_ctrls.rdQLenPdf::12                      0                       # What read queue length does an incoming req see
system.mem_ctrls.rdQLenPdf::13                      0                       # What read queue length does an incoming req see
system.mem_ctrls.rdQLenPdf::14                      0                       # What read queue length does an incoming req see
system.mem_ctrls.rdQLenPdf::15                      0                       # What read queue length does an incoming req see
system.mem_ctrls.rdQLenPdf::16                      0                       # What read queue length does an incoming req see
system.mem_ctrls.rdQLenPdf::17                      0                       # What read queue length does an incoming req see
system.mem_ctrls.rdQLenPdf::18                      0                       # What read queue length does an incoming req see
system.mem_ctrls.rdQLenPdf::19                      0                       # What read queue length does an incoming req see
system.mem_ctrls.rdQLenPdf::20                      0                       # What read queue length does an incoming req see
system.mem_ctrls.rdQLenPdf::21                      0                       # What read queue length does an incoming req see
system.mem_ctrls.rdQLenPdf::22                      0                       # What read queue length does an incoming req see
system.mem_ctrls.rdQLenPdf::23                      0                       # What read queue length does an incoming req see
system.mem_ctrls.rdQLenPdf::24                      0                       # What read queue length does an incoming req see
system.mem_ctrls.rdQLenPdf::25                      0                       # What read queue length does an incoming req see
system.mem_ctrls.rdQLenPdf::26                      0                       # What read queue length does an incoming req see
system.mem_ctrls.rdQLenPdf::27                      0                       # What read queue length does an incoming req see
system.mem_ctrls.rdQLenPdf::28                      0                       # What read queue length does an incoming req see
system.mem_ctrls.rdQLenPdf::29                      0                       # What read queue length does an incoming req see
system.mem_ctrls.rdQLenPdf::30                      0                       # What read queue length does an incoming req see
system.mem_ctrls.rdQLenPdf::31                      0                       # What read queue length does an incoming req see
system.mem_ctrls.wrQLenPdf::0                       0                       # What write queue length does an incoming req see
system.mem_ctrls.wrQLenPdf::1                       0                       # What write queue length does an incoming req see
system.mem_ctrls.wrQLenPdf::2                       0                       # What write queue length does an incoming req see
system.mem_ctrls.wrQLenPdf::3                       0                       # What write queue length does an incoming req see
system.mem_ctrls.wrQLenPdf::4                       0                       # What write queue length does an incoming req see
system.mem_ctrls.wrQLenPdf::5                       0                       # What write queue length does an incoming req see
system.mem_ctrls.wrQLenPdf::6                       0                       # What write queue length does an incoming req see
system.mem_ctrls.wrQLenPdf::7                       0                       # What write queue length does an incoming req see
system.mem_ctrls.wrQLenPdf::8                       0                       # What write queue length does an incoming req see
system.mem_ctrls.wrQLenPdf::9                       0                       # What write queue length does an incoming req see
system.mem_ctrls.wrQLenPdf::10                      0                       # What write queue length does an incoming req see
system.mem_ctrls.wrQLenPdf::11                      0                       # What write queue length does an incoming req see
system.mem_ctrls.wrQLenPdf::12                      0                       # What write queue length does an incoming req see
system.mem_ctrls.wrQLenPdf::13                      0                       # What write queue length does an incoming req see
system.mem_ctrls.wrQLenPdf::14                      0                       # What write queue length does an incoming req see
system.mem_ctrls.wrQLenPdf::15                      0                       # What write queue length does an incoming req see
system.mem_ctrls.wrQLenPdf::16                      0                       # What write queue length does an incoming req see
system.mem_ctrls.wrQLenPdf::17                      0                       # What write queue length does an incoming req see
system.mem_ctrls.wrQLenPdf::18                      0                       # What write queue length does an incoming req see
system.mem_ctrls.wrQLenPdf::19                      0                       # What write queue length does an incoming req see
system.mem_ctrls.wrQLenPdf::20                      0                       # What write queue length does an incoming req see
system.mem_ctrls.wrQLenPdf::21                      0                       # What write queue length does an incoming req see
system.mem_ctrls.wrQLenPdf::22                      0                       # What write queue length does an incoming req see
system.mem_ctrls.wrQLenPdf::23                      0                       # What write queue length does an incoming req see
system.mem_ctrls.wrQLenPdf::24                      0                       # What write queue length does an incoming req see
system.mem_ctrls.wrQLenPdf::25                      0                       # What write queue length does an incoming req see
system.mem_ctrls.wrQLenPdf::26                      0                       # What write queue length does an incoming req see
system.mem_ctrls.wrQLenPdf::27                      0                       # What write queue length does an incoming req see
system.mem_ctrls.wrQLenPdf::28                      0                       # What write queue length does an incoming req see
system.mem_ctrls.wrQLenPdf::29                      0                       # What write queue length does an incoming req see
system.mem_ctrls.wrQLenPdf::30                      0                       # What write queue length does an incoming req see
system.mem_ctrls.wrQLenPdf::31                      0                       # What write queue length does an incoming req see
system.mem_ctrls.wrQLenPdf::32                      0                       # What write queue length does an incoming req see
system.mem_ctrls.wrQLenPdf::33                      0                       # What write queue length does an incoming req see
system.mem_ctrls.wrQLenPdf::34                      0                       # What write queue length does an incoming req see
system.mem_ctrls.wrQLenPdf::35                      0                       # What write queue length does an incoming req see
system.mem_ctrls.wrQLenPdf::36                      0                       # What write queue length does an incoming req see
system.mem_ctrls.wrQLenPdf::37                      0                       # What write queue length does an incoming req see
system.mem_ctrls.wrQLenPdf::38                      0                       # What write queue length does an incoming req see
system.mem_ctrls.wrQLenPdf::39                      0                       # What write queue length does an incoming req see
system.mem_ctrls.wrQLenPdf::40                      0                       # What write queue length does an incoming req see
system.mem_ctrls.wrQLenPdf::41                      0                       # What write queue length does an incoming req see
system.mem_ctrls.wrQLenPdf::42                      0                       # What write queue length does an incoming req see
system.mem_ctrls.wrQLenPdf::43                      0                       # What write queue length does an incoming req see
system.mem_ctrls.wrQLenPdf::44                      0                       # What write queue length does an incoming req see
system.mem_ctrls.wrQLenPdf::45                      0                       # What write queue length does an incoming req see
system.mem_ctrls.wrQLenPdf::46                      0                       # What write queue length does an incoming req see
system.mem_ctrls.wrQLenPdf::47                      0                       # What write queue length does an incoming req see
system.mem_ctrls.wrQLenPdf::48                      0                       # What write queue length does an incoming req see
system.mem_ctrls.wrQLenPdf::49                      0                       # What write queue length does an incoming req see
system.mem_ctrls.wrQLenPdf::50                      0                       # What write queue length does an incoming req see
system.mem_ctrls.wrQLenPdf::51                      0                       # What write queue length does an incoming req see
system.mem_ctrls.wrQLenPdf::52                      0                       # What write queue length does an incoming req see
system.mem_ctrls.wrQLenPdf::53                      0                       # What write queue length does an incoming req see
system.mem_ctrls.wrQLenPdf::54                      0                       # What write queue length does an incoming req see
system.mem_ctrls.wrQLenPdf::55                      0                       # What write queue length does an incoming req see
system.mem_ctrls.wrQLenPdf::56                      0                       # What write queue length does an incoming req see
system.mem_ctrls.wrQLenPdf::57                      0                       # What write queue length does an incoming req see
system.mem_ctrls.wrQLenPdf::58                      0                       # What write queue length does an incoming req see
system.mem_ctrls.wrQLenPdf::59                      0                       # What write queue length does an incoming req see
system.mem_ctrls.wrQLenPdf::60                      0                       # What write queue length does an incoming req see
system.mem_ctrls.wrQLenPdf::61                      0                       # What write queue length does an incoming req see
system.mem_ctrls.wrQLenPdf::62                      0                       # What write queue length does an incoming req see
system.mem_ctrls.wrQLenPdf::63                      0                       # What write queue length does an incoming req see
system.mem_ctrls.bytesReadDRAM                      0                       # Total number of bytes read from DRAM
system.mem_ctrls.bytesReadWrQ                       0                       # Total number of bytes read from write queue
system.mem_ctrls.bytesWritten                       0                       # Total number of bytes written to DRAM
system.mem_ctrls.bytesReadSys                       0                       # Total read bytes from the system interface side
system.mem_ctrls.bytesWrittenSys                    0                       # Total written bytes from the system interface side
system.mem_ctrls.avgRdBW                         0.00                       # Average DRAM read bandwidth in MiByte/s
system.mem_ctrls.avgWrBW                         0.00                       # Average achieved write bandwidth in MiByte/s
system.mem_ctrls.avgRdBWSys                      0.00                       # Average system read bandwidth in MiByte/s
system.mem_ctrls.avgWrBWSys                      0.00                       # Average system write bandwidth in MiByte/s
system.mem_ctrls.peakBW                      12800.00                       # Theoretical peak bandwidth in MiByte/s
system.mem_ctrls.busUtil                         0.00                       # Data bus utilization in percentage
system.mem_ctrls.busUtilRead                     0.00                       # Data bus utilization in percentage for reads
system.mem_ctrls.busUtilWrite                    0.00                       # Data bus utilization in percentage for writes
system.mem_ctrls.totGap                             0                       # Total gap between requests
system.mem_ctrls.avgGap                           nan                       # Average gap between requests
system.mem_ctrls.pageHitRate                      nan                       # Row buffer hit rate, read and write combined
system.mem_ctrls.rank1.actEnergy                    0                       # Energy for activate commands per rank (pJ)
system.mem_ctrls.rank1.preEnergy                    0                       # Energy for precharge commands per rank (pJ)
system.mem_ctrls.rank1.readEnergy                   0                       # Energy for read commands per rank (pJ)
system.mem_ctrls.rank1.writeEnergy                  0                       # Energy for write commands per rank (pJ)
system.mem_ctrls.rank1.refreshEnergy                0                       # Energy for refresh commands per rank (pJ)
system.mem_ctrls.rank1.actBackEnergy                0                       # Energy for active background per rank (pJ)
system.mem_ctrls.rank1.preBackEnergy      21356764320                       # Energy for precharge background per rank (pJ)
system.mem_ctrls.rank1.actPowerDownEnergy            0                       # Energy for active power-down per rank (pJ)
system.mem_ctrls.rank1.prePowerDownEnergy            0                       # Energy for precharge power-down per rank (pJ)
system.mem_ctrls.rank1.selfRefreshEnergy            0                       # Energy for self refresh per rank (pJ)
system.mem_ctrls.rank1.totalEnergy        21356764320                       # Total energy per rank (pJ)
system.mem_ctrls.rank1.averagePower        384.000005                       # Core power per rank (mW)
system.mem_ctrls.rank1.totalIdleTime                0                       # Total Idle time Per DRAM Rank
system.mem_ctrls.rank1.memoryStateTime::IDLE  55616573000                       # Time in different power states
system.mem_ctrls.rank1.memoryStateTime::REF            0                       # Time in different power states
system.mem_ctrls.rank1.memoryStateTime::SREF            0                       # Time in different power states
system.mem_ctrls.rank1.memoryStateTime::PRE_PDN            0                       # Time in different power states
system.mem_ctrls.rank1.memoryStateTime::ACT            0                       # Time in different power states
system.mem_ctrls.rank1.memoryStateTime::ACT_PDN            0                       # Time in different power states
system.mem_ctrls.rank0.actEnergy                    0                       # Energy for activate commands per rank (pJ)
system.mem_ctrls.rank0.preEnergy                    0                       # Energy for precharge commands per rank (pJ)
system.mem_ctrls.rank0.readEnergy                   0                       # Energy for read commands per rank (pJ)
system.mem_ctrls.rank0.writeEnergy                  0                       # Energy for write commands per rank (pJ)
system.mem_ctrls.rank0.refreshEnergy                0                       # Energy for refresh commands per rank (pJ)
system.mem_ctrls.rank0.actBackEnergy                0                       # Energy for active background per rank (pJ)
system.mem_ctrls.rank0.preBackEnergy      21356764320                       # Energy for precharge background per rank (pJ)
system.mem_ctrls.rank0.actPowerDownEnergy            0                       # Energy for active power-down per rank (pJ)
system.mem_ctrls.rank0.prePowerDownEnergy            0                       # Energy for precharge power-down per rank (pJ)
system.mem_ctrls.rank0.selfRefreshEnergy            0                       # Energy for self refresh per rank (pJ)
system.mem_ctrls.rank0.totalEnergy        21356764320                       # Total energy per rank (pJ)
system.mem_ctrls.rank0.averagePower        384.000005                       # Core power per rank (mW)
system.mem_ctrls.rank0.totalIdleTime                0                       # Total Idle time Per DRAM Rank
system.mem_ctrls.rank0.memoryStateTime::IDLE  55616573000                       # Time in different power states
system.mem_ctrls.rank0.memoryStateTime::REF            0                       # Time in different power states
system.mem_ctrls.rank0.memoryStateTime::SREF            0                       # Time in different power states
system.mem_ctrls.rank0.memoryStateTime::PRE_PDN            0                       # Time in different power states
system.mem_ctrls.rank0.memoryStateTime::ACT            0                       # Time in different power states
system.mem_ctrls.rank0.memoryStateTime::ACT_PDN            0                       # Time in different power states
system.cpu_clk_domain.clock                       500                       # Clock period in ticks
system.cpu.numPwrStateTransitions                   1                       # Number of power state transitions
system.cpu.pwrStateResidencyTicks::ON     55616573000                       # Cumulative time (in ticks) in various power states
system.cpu.icache.pwrStateResidencyTicks::UNDEFINED  55616573000                       # Cumulative time (in ticks) in various power states
system.cpu.icache.demand_hits::.cpu.inst     69092741                       # number of demand (read+write) hits
system.cpu.icache.demand_hits::total         69092741                       # number of demand (read+write) hits
system.cpu.icache.overall_hits::.cpu.inst     69092741                       # number of overall hits
system.cpu.icache.overall_hits::total        69092741                       # number of overall hits
system.cpu.icache.demand_misses::.cpu.inst        87771                       # number of demand (read+write) misses
system.cpu.icache.demand_misses::total          87771                       # number of demand (read+write) misses
system.cpu.icache.overall_misses::.cpu.inst        87771                       # number of overall misses
system.cpu.icache.overall_misses::total         87771                       # number of overall misses
system.cpu.icache.demand_accesses::.cpu.inst     69180512                       # number of demand (read+write) accesses
system.cpu.icache.demand_accesses::total     69180512                       # number of demand (read+write) accesses
system.cpu.icache.overall_accesses::.cpu.inst     69180512                       # number of overall (read+write) accesses
system.cpu.icache.overall_accesses::total     69180512                       # number of overall (read+write) accesses
system.cpu.icache.demand_miss_rate::.cpu.inst     0.001269                       # miss rate for demand accesses
system.cpu.icache.demand_miss_rate::total     0.001269                       # miss rate for demand accesses
system.cpu.icache.overall_miss_rate::.cpu.inst     0.001269                       # miss rate for overall accesses
system.cpu.icache.overall_miss_rate::total     0.001269                       # miss rate for overall accesses
system.cpu.icache.blocked_cycles::no_mshrs            0                       # number of cycles access was blocked
system.cpu.icache.blocked_cycles::no_targets            0                       # number of cycles access was blocked
system.cpu.icache.blocked::no_mshrs                 0                       # number of cycles access was blocked
system.cpu.icache.blocked::no_targets               0                       # number of cycles access was blocked
system.cpu.icache.avg_blocked_cycles::no_mshrs          nan                       # average number of cycles each access was blocked
system.cpu.icache.avg_blocked_cycles::no_targets          nan                       # average number of cycles each access was blocked
system.cpu.icache.writebacks::.writebacks        87259                       # number of writebacks
system.cpu.icache.writebacks::total             87259                       # number of writebacks
system.cpu.icache.replacements                  87259                       # number of replacements
system.cpu.icache.ReadReq_hits::.cpu.inst     69092741                       # number of ReadReq hits
system.cpu.icache.ReadReq_hits::total        69092741                       # number of ReadReq hits
system.cpu.icache.ReadReq_misses::.cpu.inst        87771                       # number of ReadReq misses
system.cpu.icache.ReadReq_misses::total         87771                       # number of ReadReq misses
system.cpu.icache.ReadReq_accesses::.cpu.inst     69180512                       # number of ReadReq accesses(hits+misses)
system.cpu.icache.ReadReq_accesses::total     69180512                       # number of ReadReq accesses(hits+misses)
system.cpu.icache.ReadReq_miss_rate::.cpu.inst     0.001269                       # miss rate for ReadReq accesses
system.cpu.icache.ReadReq_miss_rate::total     0.001269                       # miss rate for ReadReq accesses
system.cpu.icache.tags.pwrStateResidencyTicks::UNDEFINED  55616573000                       # Cumulative time (in ticks) in various power states
system.cpu.icache.tags.tagsinuse           509.109618                       # Cycle average of tags in use
system.cpu.icache.tags.total_refs            69180512                       # Total number of references to valid blocks.
system.cpu.icache.tags.sampled_refs             87771                       # Sample count of references to valid blocks.
system.cpu.icache.tags.avg_refs            788.193276                       # Average number of references to valid blocks.
system.cpu.icache.tags.warmup_cycle                 0                       # Cycle when the warmup percentage was hit.
system.cpu.icache.tags.occ_blocks::.cpu.inst   509.109618                       # Average occupied blocks per requestor
system.cpu.icache.tags.occ_percent::.cpu.inst     0.994355                       # Average percentage of cache occupancy
system.cpu.icache.tags.occ_percent::total     0.994355                       # Average percentage of cache occupancy
system.cpu.icache.tags.occ_task_id_blocks::1024          512                       # Occupied blocks per task id
system.cpu.icache.tags.age_task_id_blocks_1024::0          108                       # Occupied blocks per task id
system.cpu.icache.tags.age_task_id_blocks_1024::1          329                       # Occupied blocks per task id
system.cpu.icache.tags.age_task_id_blocks_1024::2           41                       # Occupied blocks per task id
system.cpu.icache.tags.age_task_id_blocks_1024::3            7                       # Occupied blocks per task id
system.cpu.icache.tags.age_task_id_blocks_1024::4           27                       # Occupied blocks per task id
system.cpu.icache.tags.occ_task_id_percent::1024            1                       # Percentage of cache occupancy per task id
system.cpu.icache.tags.tag_accesses         138448795                       # Number of tag accesses
system.cpu.icache.tags.data_accesses        138448795                       # Number of data accesses
system.cpu.dtb2.walker.pwrStateResidencyTicks::UNDEFINED  55616573000                       # Cumulative time (in ticks) in various power states
system.cpu.dtb.walker.pwrStateResidencyTicks::UNDEFINED  55616573000                       # Cumulative time (in ticks) in various power states
system.cpu.interrupts.clk_domain.clock           8000                       # Clock period in ticks
system.cpu.itb_walker_cache.pwrStateResidencyTicks::UNDEFINED  55616573000                       # Cumulative time (in ticks) in various power states
system.cpu.itb_walker_cache.blocked_cycles::no_mshrs            0                       # number of cycles access was blocked
system.cpu.itb_walker_cache.blocked_cycles::no_targets            0                       # number of cycles access was blocked
system.cpu.itb_walker_cache.blocked::no_mshrs            0                       # number of cycles access was blocked
system.cpu.itb_walker_cache.blocked::no_targets            0                       # number of cycles access was blocked
system.cpu.itb_walker_cache.avg_blocked_cycles::no_mshrs          nan                       # average number of cycles each access was blocked
system.cpu.itb_walker_cache.avg_blocked_cycles::no_targets          nan                       # average number of cycles each access was blocked
system.cpu.itb_walker_cache.replacements            0                       # number of replacements
system.cpu.itb_walker_cache.tags.pwrStateResidencyTicks::UNDEFINED  55616573000                       # Cumulative time (in ticks) in various power states
system.cpu.itb_walker_cache.tags.tagsinuse            0                       # Cycle average of tags in use
system.cpu.itb_walker_cache.tags.total_refs            0                       # Total number of references to valid blocks.
system.cpu.itb_walker_cache.tags.sampled_refs            0                       # Sample count of references to valid blocks.
system.cpu.itb_walker_cache.tags.avg_refs          nan                       # Average number of references to valid blocks.
system.cpu.itb_walker_cache.tags.warmup_cycle            0                       # Cycle when the warmup percentage was hit.
system.cpu.itb_walker_cache.tags.tag_accesses            0                       # Number of tag accesses
system.cpu.itb_walker_cache.tags.data_accesses            0                       # Number of data accesses
system.cpu.itb.walker.pwrStateResidencyTicks::UNDEFINED  55616573000                       # Cumulative time (in ticks) in various power states
system.cpu.dtb_walker_cache.pwrStateResidencyTicks::UNDEFINED  55616573000                       # Cumulative time (in ticks) in various power states
system.cpu.dtb_walker_cache.blocked_cycles::no_mshrs            0                       # number of cycles access was blocked
system.cpu.dtb_walker_cache.blocked_cycles::no_targets            0                       # number of cycles access was blocked
system.cpu.dtb_walker_cache.blocked::no_mshrs            0                       # number of cycles access was blocked
system.cpu.dtb_walker_cache.blocked::no_targets            0                       # number of cycles access was blocked
system.cpu.dtb_walker_cache.avg_blocked_cycles::no_mshrs          nan                       # average number of cycles each access was blocked
system.cpu.dtb_walker_cache.avg_blocked_cycles::no_targets          nan                       # average number of cycles each access was blocked
system.cpu.dtb_walker_cache.replacements            0                       # number of replacements
system.cpu.dtb_walker_cache.tags.pwrStateResidencyTicks::UNDEFINED  55616573000                       # Cumulative time (in ticks) in various power states
system.cpu.dtb_walker_cache.tags.tagsinuse            0                       # Cycle average of tags in use
system.cpu.dtb_walker_cache.tags.total_refs            0                       # Total number of references to valid blocks.
system.cpu.dtb_walker_cache.tags.sampled_refs            0                       # Sample count of references to valid blocks.
system.cpu.dtb_walker_cache.tags.avg_refs          nan                       # Average number of references to valid blocks.
system.cpu.dtb_walker_cache.tags.warmup_cycle            0                       # Cycle when the warmup percentage was hit.
system.cpu.dtb_walker_cache.tags.tag_accesses            0                       # Number of tag accesses
system.cpu.dtb_walker_cache.tags.data_accesses            0                       # Number of data accesses
system.cpu.dcache.pwrStateResidencyTicks::UNDEFINED  55616573000                       # Cumulative time (in ticks) in various power states
system.cpu.dcache.demand_hits::.cpu.data     18998875                       # number of demand (read+write) hits
system.cpu.dcache.demand_hits::total         18998875                       # number of demand (read+write) hits
system.cpu.dcache.overall_hits::.cpu.data     18998935                       # number of overall hits
system.cpu.dcache.overall_hits::total        18998935                       # number of overall hits
system.cpu.dcache.demand_misses::.cpu.data       740797                       # number of demand (read+write) misses
system.cpu.dcache.demand_misses::total         740797                       # number of demand (read+write) misses
system.cpu.dcache.overall_misses::.cpu.data       747273                       # number of overall misses
system.cpu.dcache.overall_misses::total        747273                       # number of overall misses
system.cpu.dcache.demand_accesses::.cpu.data     19739672                       # number of demand (read+write) accesses
system.cpu.dcache.demand_accesses::total     19739672                       # number of demand (read+write) accesses
system.cpu.dcache.overall_accesses::.cpu.data     19746208                       # number of overall (read+write) accesses
system.cpu.dcache.overall_accesses::total     19746208                       # number of overall (read+write) accesses
system.cpu.dcache.demand_miss_rate::.cpu.data     0.037528                       # miss rate for demand accesses
system.cpu.dcache.demand_miss_rate::total     0.037528                       # miss rate for demand accesses
system.cpu.dcache.overall_miss_rate::.cpu.data     0.037844                       # miss rate for overall accesses
system.cpu.dcache.overall_miss_rate::total     0.037844                       # miss rate for overall accesses
system.cpu.dcache.blocked_cycles::no_mshrs            0                       # number of cycles access was blocked
system.cpu.dcache.blocked_cycles::no_targets            0                       # number of cycles access was blocked
system.cpu.dcache.blocked::no_mshrs                 0                       # number of cycles access was blocked
system.cpu.dcache.blocked::no_targets               0                       # number of cycles access was blocked
system.cpu.dcache.avg_blocked_cycles::no_mshrs          nan                       # average number of cycles each access was blocked
system.cpu.dcache.avg_blocked_cycles::no_targets          nan                       # average number of cycles each access was blocked
system.cpu.dcache.writebacks::.writebacks       304992                       # number of writebacks
system.cpu.dcache.writebacks::total            304992                       # number of writebacks
system.cpu.dcache.replacements                 746249                       # number of replacements
system.cpu.dcache.ReadReq_hits::.cpu.data     13140996                       # number of ReadReq hits
system.cpu.dcache.ReadReq_hits::total        13140996                       # number of ReadReq hits
system.cpu.dcache.ReadReq_misses::.cpu.data       542791                       # number of ReadReq misses
system.cpu.dcache.ReadReq_misses::total        542791                       # number of ReadReq misses
system.cpu.dcache.ReadReq_accesses::.cpu.data     13683787                       # number of ReadReq accesses(hits+misses)
system.cpu.dcache.ReadReq_accesses::total     13683787                       # number of ReadReq accesses(hits+misses)
system.cpu.dcache.ReadReq_miss_rate::.cpu.data     0.039667                       # miss rate for ReadReq accesses
system.cpu.dcache.ReadReq_miss_rate::total     0.039667                       # miss rate for ReadReq accesses
system.cpu.dcache.WriteReq_hits::.cpu.data      5857879                       # number of WriteReq hits
system.cpu.dcache.WriteReq_hits::total        5857879                       # number of WriteReq hits
system.cpu.dcache.WriteReq_misses::.cpu.data       198006                       # number of WriteReq misses
system.cpu.dcache.WriteReq_misses::total       198006                       # number of WriteReq misses
system.cpu.dcache.WriteReq_accesses::.cpu.data      6055885                       # number of WriteReq accesses(hits+misses)
system.cpu.dcache.WriteReq_accesses::total      6055885                       # number of WriteReq accesses(hits+misses)
system.cpu.dcache.WriteReq_miss_rate::.cpu.data     0.032696                       # miss rate for WriteReq accesses
system.cpu.dcache.WriteReq_miss_rate::total     0.032696                       # miss rate for WriteReq accesses
system.cpu.dcache.SoftPFReq_hits::.cpu.data           60                       # number of SoftPFReq hits
system.cpu.dcache.SoftPFReq_hits::total            60                       # number of SoftPFReq hits
system.cpu.dcache.SoftPFReq_misses::.cpu.data         6476                       # number of SoftPFReq misses
system.cpu.dcache.SoftPFReq_misses::total         6476                       # number of SoftPFReq misses
system.cpu.dcache.SoftPFReq_accesses::.cpu.data         6536                       # number of SoftPFReq accesses(hits+misses)
system.cpu.dcache.SoftPFReq_accesses::total         6536                       # number of SoftPFReq accesses(hits+misses)
system.cpu.dcache.SoftPFReq_miss_rate::.cpu.data     0.990820                       # miss rate for SoftPFReq accesses
system.cpu.dcache.SoftPFReq_miss_rate::total     0.990820                       # miss rate for SoftPFReq accesses
system.cpu.dcache.tags.pwrStateResidencyTicks::UNDEFINED  55616573000                       # Cumulative time (in ticks) in various power states
system.cpu.dcache.tags.tagsinuse          1023.184119                       # Cycle average of tags in use
system.cpu.dcache.tags.total_refs            19746208                       # Total number of references to valid blocks.
system.cpu.dcache.tags.sampled_refs            747273                       # Sample count of references to valid blocks.
system.cpu.dcache.tags.avg_refs             26.424356                       # Average number of references to valid blocks.
system.cpu.dcache.tags.warmup_cycle              1500                       # Cycle when the warmup percentage was hit.
system.cpu.dcache.tags.occ_blocks::.cpu.data  1023.184119                       # Average occupied blocks per requestor
system.cpu.dcache.tags.occ_percent::.cpu.data     0.999203                       # Average percentage of cache occupancy
system.cpu.dcache.tags.occ_percent::total     0.999203                       # Average percentage of cache occupancy
system.cpu.dcache.tags.occ_task_id_blocks::1024         1024                       # Occupied blocks per task id
system.cpu.dcache.tags.age_task_id_blocks_1024::0          186                       # Occupied blocks per task id
system.cpu.dcache.tags.age_task_id_blocks_1024::1          547                       # Occupied blocks per task id
system.cpu.dcache.tags.age_task_id_blocks_1024::2          289                       # Occupied blocks per task id
system.cpu.dcache.tags.age_task_id_blocks_1024::3            2                       # Occupied blocks per task id
system.cpu.dcache.tags.occ_task_id_percent::1024            1                       # Percentage of cache occupancy per task id
system.cpu.dcache.tags.tag_accesses          40239689                       # Number of tag accesses
system.cpu.dcache.tags.data_accesses         40239689                       # Number of data accesses

---------- End Simulation Statistics   ----------
