gem5 Simulator System.  http://gem5.org
gem5 is copyrighted software; use the --copyright option for details.

gem5 compiled Apr 29 2020 01:03:03
gem5 started Apr 29 2020 01:05:48
gem5 executing on workstation, pid 22252
command line: build/X86/gem5.opt --debug-flag=SimpleMemobj configs/learning_gem5/modifying-extending/simple_memobj.py

Global frequency set at 1000000000000 ticks per second
Beginning simulation!
      0: system.memobj: Got request for addr 0x190
  77000: system.memobj: Got response for addr 0x190
  77000: system.memobj: Got request for addr 0x190
 126000: system.memobj: Got response for addr 0x190
 126000: system.memobj: Got request for addr 0x190
 175000: system.memobj: Got response for addr 0x190
 175000: system.memobj: Got request for addr 0x94e30
 238000: system.memobj: Got response for addr 0x94e30
 238000: system.memobj: Got request for addr 0x190
 287000: system.memobj: Got response for addr 0x190
 287000: system.memobj: Got request for addr 0x198
 336000: system.memobj: Got response for addr 0x198
 336000: system.memobj: Got request for addr 0x198
 385000: system.memobj: Got response for addr 0x198
 385000: system.memobj: Got request for addr 0x198
 434000: system.memobj: Got response for addr 0x198
 434000: system.memobj: Got request for addr 0x94e28
 455000: system.memobj: Got response for addr 0x94e28
 455000: system.memobj: Got request for addr 0x198
 504000: system.memobj: Got response for addr 0x198
 504000: system.memobj: Got request for addr 0x94e20
 525000: system.memobj: Got response for addr 0x94e20
 525000: system.memobj: Got request for addr 0x1a0
 574000: system.memobj: Got response for addr 0x1a0
 574000: system.memobj: Got request for addr 0x1a0
 623000: system.memobj: Got response for addr 0x1a0
 623000: system.memobj: Got request for addr 0x1a8
 672000: system.memobj: Got response for addr 0x1a8
 672000: system.memobj: Got request for addr 0x1a8
 721000: system.memobj: Got response for addr 0x1a8
 721000: system.memobj: Got request for addr 0x1b0
 770000: system.memobj: Got response for addr 0x1b0
 770000: system.memobj: Got request for addr 0x1b0
 819000: system.memobj: Got response for addr 0x1b0
 819000: system.memobj: Got request for addr 0x1b8
 868000: system.memobj: Got response for addr 0x1b8
 868000: system.memobj: Got request for addr 0x94e18
 889000: system.memobj: Got response for addr 0x94e18
 889000: system.memobj: Got request for addr 0x9a00
 952000: system.memobj: Got response for addr 0x9a00
 952000: system.memobj: Got request for addr 0x94e10
 973000: system.memobj: Got response for addr 0x94e10
 973000: system.memobj: Got request for addr 0x9a00
1022000: system.memobj: Got response for addr 0x9a00
1022000: system.memobj: Got request for addr 0x9a00
1071000: system.memobj: Got response for addr 0x9a00
1071000: system.memobj: Got request for addr 0x9a08
1120000: system.memobj: Got response for addr 0x9a08
1120000: system.memobj: Got request for addr 0x94e08
1141000: system.memobj: Got response for addr 0x94e08
1141000: system.memobj: Got request for addr 0x9a08
1190000: system.memobj: Got response for addr 0x9a08
1190000: system.memobj: Got request for addr 0x9a08
1239000: system.memobj: Got response for addr 0x9a08
1239000: system.memobj: Got request for addr 0x94e00
1260000: system.memobj: Got response for addr 0x94e00
1260000: system.memobj: Got request for addr 0x9a08
1309000: system.memobj: Got response for addr 0x9a08
1309000: system.memobj: Got request for addr 0x9a10
1358000: system.memobj: Got response for addr 0x9a10
1358000: system.memobj: Got request for addr 0x9a10
1407000: system.memobj: Got response for addr 0x9a10
1407000: system.memobj: Got request for addr 0x94df8
1428000: system.memobj: Got response for addr 0x94df8
1428000: system.memobj: Got request for addr 0x9a10
1477000: system.memobj: Got response for addr 0x9a10
1477000: system.memobj: Got request for addr 0x94df0
1498000: system.memobj: Got response for addr 0x94df0
1498000: system.memobj: Got request for addr 0x9a10
1547000: system.memobj: Got response for addr 0x9a10
1547000: system.memobj: Got request for addr 0x94de8
1568000: system.memobj: Got response for addr 0x94de8
1568000: system.memobj: Got request for addr 0x9a10
1617000: system.memobj: Got response for addr 0x9a10
1617000: system.memobj: Got request for addr 0x9a18
1666000: system.memobj: Got response for addr 0x9a18
1666000: system.memobj: Got request for addr 0x9a18
1715000: system.memobj: Got response for addr 0x9a18
1715000: system.memobj: Got request for addr 0x9a20
1764000: system.memobj: Got response for addr 0x9a20
1764000: system.memobj: Got request for addr 0x94c08
1785000: system.memobj: Got response for addr 0x94c08
1785000: system.memobj: Got request for addr 0x9a20
1834000: system.memobj: Got response for addr 0x9a20
1834000: system.memobj: Got request for addr 0x9a20
1897000: system.memobj: Got response for addr 0x9a20
1897000: system.memobj: Got request for addr 0x9a28
1946000: system.memobj: Got response for addr 0x9a28
1946000: system.memobj: Got request for addr 0x9a28
1995000: system.memobj: Got response for addr 0x9a28
1995000: system.memobj: Got request for addr 0x9a28
2044000: system.memobj: Got response for addr 0x9a28
2044000: system.memobj: Got request for addr 0x9a30
2093000: system.memobj: Got response for addr 0x9a30
2093000: system.memobj: Got request for addr 0x9a30
2142000: system.memobj: Got response for addr 0x9a30
2142000: system.memobj: Got request for addr 0x94c00
2163000: system.memobj: Got response for addr 0x94c00
2163000: system.memobj: Got request for addr 0x9a30
2212000: system.memobj: Got response for addr 0x9a30
2212000: system.memobj: Got request for addr 0x9a38
2261000: system.memobj: Got response for addr 0x9a38
2261000: system.memobj: Got request for addr 0x94bf8
2282000: system.memobj: Got response for addr 0x94bf8
2282000: system.memobj: Got request for addr 0x9a38
2331000: system.memobj: Got response for addr 0x9a38
2331000: system.memobj: Got request for addr 0x9a48
2380000: system.memobj: Got response for addr 0x9a48
2380000: system.memobj: Got request for addr 0x9a50
2429000: system.memobj: Got response for addr 0x9a50
2429000: system.memobj: Got request for addr 0x94e20
2478000: system.memobj: Got response for addr 0x94e20
2478000: system.memobj: Got request for addr 0x9a50
2527000: system.memobj: Got response for addr 0x9a50
2527000: system.memobj: Got request for addr 0x9a58
2576000: system.memobj: Got response for addr 0x9a58
2576000: system.memobj: Got request for addr 0x807b0
2597000: system.memobj: Got response for addr 0x807b0
2597000: system.memobj: Got request for addr 0x9a58
2646000: system.memobj: Got response for addr 0x9a58
2646000: system.memobj: Got request for addr 0x9a60
2695000: system.memobj: Got response for addr 0x9a60
2695000: system.memobj: Got request for addr 0x92df8
2716000: system.memobj: Got response for addr 0x92df8
2716000: system.memobj: Got request for addr 0x9a60
2765000: system.memobj: Got response for addr 0x9a60
2765000: system.memobj: Got request for addr 0x9a68
2828000: system.memobj: Got response for addr 0x9a68
2828000: system.memobj: Got request for addr 0x7f9f8
2849000: system.memobj: Got response for addr 0x7f9f8
2849000: system.memobj: Got request for addr 0x9a68
2898000: system.memobj: Got response for addr 0x9a68
2898000: system.memobj: Got request for addr 0x9a68
2947000: system.memobj: Got response for addr 0x9a68
2947000: system.memobj: Got request for addr 0x9a70
2996000: system.memobj: Got response for addr 0x9a70
2996000: system.memobj: Got request for addr 0x94e48
3045000: system.memobj: Got response for addr 0x94e48
3045000: system.memobj: Got request for addr 0x9a70
3094000: system.memobj: Got response for addr 0x9a70
3094000: system.memobj: Got request for addr 0x9a70
3143000: system.memobj: Got response for addr 0x9a70
3143000: system.memobj: Got request for addr 0x9a78
3192000: system.memobj: Got response for addr 0x9a78
3192000: system.memobj: Got request for addr 0x9a78
3241000: system.memobj: Got response for addr 0x9a78
3241000: system.memobj: Got request for addr 0x9a78
3290000: system.memobj: Got response for addr 0x9a78
3290000: system.memobj: Got request for addr 0x9a80
3339000: system.memobj: Got response for addr 0x9a80
3339000: system.memobj: Got request for addr 0x94be8
3360000: system.memobj: Got response for addr 0x94be8
3360000: system.memobj: Got request for addr 0x15b00
3437000: system.memobj: Got response for addr 0x15b00
3437000: system.memobj: Got request for addr 0x94e50
3514000: system.memobj: Got response for addr 0x94e50
3514000: system.memobj: Got request for addr 0x15b00
3591000: system.memobj: Got response for addr 0x15b00
3591000: system.memobj: Got request for addr 0x15b00
3640000: system.memobj: Got response for addr 0x15b00
3640000: system.memobj: Got request for addr 0x15b00
3689000: system.memobj: Got response for addr 0x15b00
3689000: system.memobj: Got request for addr 0x15b08
3738000: system.memobj: Got response for addr 0x15b08
3738000: system.memobj: Got request for addr 0x15b08
3787000: system.memobj: Got response for addr 0x15b08
3787000: system.memobj: Got request for addr 0x15b08
3836000: system.memobj: Got response for addr 0x15b08
3836000: system.memobj: Got request for addr 0x15b08
3885000: system.memobj: Got response for addr 0x15b08
3885000: system.memobj: Got request for addr 0x15b10
3934000: system.memobj: Got response for addr 0x15b10
3934000: system.memobj: Got request for addr 0x15b10
3983000: system.memobj: Got response for addr 0x15b10
3983000: system.memobj: Got request for addr 0x15b18
4032000: system.memobj: Got response for addr 0x15b18
4032000: system.memobj: Got request for addr 0x15b40
4081000: system.memobj: Got response for addr 0x15b40
4081000: system.memobj: Got request for addr 0x15b40
4130000: system.memobj: Got response for addr 0x15b40
4130000: system.memobj: Got request for addr 0x94e60
4207000: system.memobj: Got response for addr 0x94e60
4207000: system.memobj: Got request for addr 0x15b40
4284000: system.memobj: Got response for addr 0x15b40
4284000: system.memobj: Got request for addr 0x15b48
4333000: system.memobj: Got response for addr 0x15b48
4333000: system.memobj: Got request for addr 0x15b48
4382000: system.memobj: Got response for addr 0x15b48
4382000: system.memobj: Got request for addr 0x15b10
4431000: system.memobj: Got response for addr 0x15b10
4431000: system.memobj: Got request for addr 0x15b10
4480000: system.memobj: Got response for addr 0x15b10
4480000: system.memobj: Got request for addr 0x15b18
4529000: system.memobj: Got response for addr 0x15b18
4529000: system.memobj: Got request for addr 0x15b18
4578000: system.memobj: Got response for addr 0x15b18
4578000: system.memobj: Got request for addr 0x15b20
4627000: system.memobj: Got response for addr 0x15b20
4627000: system.memobj: Got request for addr 0x5ebe8
4690000: system.memobj: Got response for addr 0x5ebe8
4690000: system.memobj: Got request for addr 0x15b68
4739000: system.memobj: Got response for addr 0x15b68
4739000: system.memobj: Got request for addr 0x15b70
4788000: system.memobj: Got response for addr 0x15b70
4788000: system.memobj: Got request for addr 0x94e68
4865000: system.memobj: Got response for addr 0x94e68
4865000: system.memobj: Got request for addr 0x15b70
4942000: system.memobj: Got response for addr 0x15b70
4942000: system.memobj: Got request for addr 0x15b70
4991000: system.memobj: Got response for addr 0x15b70
4991000: system.memobj: Got request for addr 0x15b78
5040000: system.memobj: Got response for addr 0x15b78
5040000: system.memobj: Got request for addr 0x92e70
5061000: system.memobj: Got response for addr 0x92e70
5061000: system.memobj: Got request for addr 0x15b78
5110000: system.memobj: Got response for addr 0x15b78
5110000: system.memobj: Got request for addr 0x15b80
5159000: system.memobj: Got response for addr 0x15b80
5159000: system.memobj: Got request for addr 0x94e70
5236000: system.memobj: Got response for addr 0x94e70
5236000: system.memobj: Got request for addr 0x15b80
5313000: system.memobj: Got response for addr 0x15b80
5313000: system.memobj: Got request for addr 0x15b80
5362000: system.memobj: Got response for addr 0x15b80
5362000: system.memobj: Got request for addr 0x15b10
5411000: system.memobj: Got response for addr 0x15b10
5411000: system.memobj: Got request for addr 0x15b10
5460000: system.memobj: Got response for addr 0x15b10
5460000: system.memobj: Got request for addr 0x15b18
5509000: system.memobj: Got response for addr 0x15b18
5509000: system.memobj: Got request for addr 0x15b18
5558000: system.memobj: Got response for addr 0x15b18
5558000: system.memobj: Got request for addr 0x15b20
5607000: system.memobj: Got response for addr 0x15b20
5607000: system.memobj: Got request for addr 0x5eb98
5656000: system.memobj: Got response for addr 0x5eb98
5656000: system.memobj: Got request for addr 0x15be8
5705000: system.memobj: Got response for addr 0x15be8
5705000: system.memobj: Got request for addr 0x15bf0
5754000: system.memobj: Got response for addr 0x15bf0
5754000: system.memobj: Got request for addr 0x94e78
5831000: system.memobj: Got response for addr 0x94e78
5831000: system.memobj: Got request for addr 0x15bf0
5908000: system.memobj: Got response for addr 0x15bf0
5908000: system.memobj: Got request for addr 0x15bf0
5957000: system.memobj: Got response for addr 0x15bf0
5957000: system.memobj: Got request for addr 0x15bf8
6006000: system.memobj: Got response for addr 0x15bf8
6006000: system.memobj: Got request for addr 0x93540
6027000: system.memobj: Got response for addr 0x93540
6027000: system.memobj: Got request for addr 0x15bf8
6076000: system.memobj: Got response for addr 0x15bf8
6076000: system.memobj: Got request for addr 0x94e80
6153000: system.memobj: Got response for addr 0x94e80
6153000: system.memobj: Got request for addr 0x15c00
6230000: system.memobj: Got response for addr 0x15c00
6230000: system.memobj: Got request for addr 0x15c00
6279000: system.memobj: Got response for addr 0x15c00
6279000: system.memobj: Got request for addr 0x15c08
6328000: system.memobj: Got response for addr 0x15c08
6328000: system.memobj: Got request for addr 0x15b10
6377000: system.memobj: Got response for addr 0x15b10
6377000: system.memobj: Got request for addr 0x15b10
6426000: system.memobj: Got response for addr 0x15b10
6426000: system.memobj: Got request for addr 0x15b18
6475000: system.memobj: Got response for addr 0x15b18
6475000: system.memobj: Got request for addr 0x15b18
6524000: system.memobj: Got response for addr 0x15b18
6524000: system.memobj: Got request for addr 0x15b20
6573000: system.memobj: Got response for addr 0x15b20
6573000: system.memobj: Got request for addr 0x5ebf0
6622000: system.memobj: Got response for addr 0x5ebf0
6622000: system.memobj: Got request for addr 0x15b50
6671000: system.memobj: Got response for addr 0x15b50
6671000: system.memobj: Got request for addr 0x15b58
6720000: system.memobj: Got response for addr 0x15b58
6720000: system.memobj: Got request for addr 0x94e88
6797000: system.memobj: Got response for addr 0x94e88
6797000: system.memobj: Got request for addr 0x15b58
6874000: system.memobj: Got response for addr 0x15b58
6874000: system.memobj: Got request for addr 0x15b58
6923000: system.memobj: Got response for addr 0x15b58
6923000: system.memobj: Got request for addr 0x15b60
6972000: system.memobj: Got response for addr 0x15b60
6972000: system.memobj: Got request for addr 0x934f0
6993000: system.memobj: Got response for addr 0x934f0
6993000: system.memobj: Got request for addr 0x15b60
7042000: system.memobj: Got response for addr 0x15b60
7042000: system.memobj: Got request for addr 0x94e90
7119000: system.memobj: Got response for addr 0x94e90
7119000: system.memobj: Got request for addr 0x15b68
7196000: system.memobj: Got response for addr 0x15b68
7196000: system.memobj: Got request for addr 0x15b68
7245000: system.memobj: Got response for addr 0x15b68
7245000: system.memobj: Got request for addr 0x15b10
7294000: system.memobj: Got response for addr 0x15b10
7294000: system.memobj: Got request for addr 0x15b10
7343000: system.memobj: Got response for addr 0x15b10
7343000: system.memobj: Got request for addr 0x15b18
7392000: system.memobj: Got response for addr 0x15b18
7392000: system.memobj: Got request for addr 0x15b18
7441000: system.memobj: Got response for addr 0x15b18
7441000: system.memobj: Got request for addr 0x15b20
7490000: system.memobj: Got response for addr 0x15b20
7490000: system.memobj: Got request for addr 0x5eb80
7539000: system.memobj: Got response for addr 0x5eb80
7539000: system.memobj: Got request for addr 0x15c08
7588000: system.memobj: Got response for addr 0x15c08
7588000: system.memobj: Got request for addr 0x15c10
7637000: system.memobj: Got response for addr 0x15c10
7637000: system.memobj: Got request for addr 0x94e98
7714000: system.memobj: Got response for addr 0x94e98
7714000: system.memobj: Got request for addr 0x15c10
7791000: system.memobj: Got response for addr 0x15c10
7791000: system.memobj: Got request for addr 0x15c10
8123000: system.memobj: Got response for addr 0x15c10
8123000: system.memobj: Got request for addr 0x15c18
8172000: system.memobj: Got response for addr 0x15c18
8172000: system.memobj: Got request for addr 0x934e0
8193000: system.memobj: Got response for addr 0x934e0
8193000: system.memobj: Got request for addr 0x15c18
8242000: system.memobj: Got response for addr 0x15c18
8242000: system.memobj: Got request for addr 0x94ea0
8319000: system.memobj: Got response for addr 0x94ea0
8319000: system.memobj: Got request for addr 0x15c20
8396000: system.memobj: Got response for addr 0x15c20
8396000: system.memobj: Got request for addr 0x15c20
8445000: system.memobj: Got response for addr 0x15c20
8445000: system.memobj: Got request for addr 0x15c28
8494000: system.memobj: Got response for addr 0x15c28
8494000: system.memobj: Got request for addr 0x15b10
8543000: system.memobj: Got response for addr 0x15b10
8543000: system.memobj: Got request for addr 0x15b10
8592000: system.memobj: Got response for addr 0x15b10
8592000: system.memobj: Got request for addr 0x15b18
8641000: system.memobj: Got response for addr 0x15b18
8641000: system.memobj: Got request for addr 0x15b18
8690000: system.memobj: Got response for addr 0x15b18
8690000: system.memobj: Got request for addr 0x15b20
8739000: system.memobj: Got response for addr 0x15b20
8739000: system.memobj: Got request for addr 0x5eb88
8802000: system.memobj: Got response for addr 0x5eb88
8802000: system.memobj: Got request for addr 0x15b40
8851000: system.memobj: Got response for addr 0x15b40
8851000: system.memobj: Got request for addr 0x15b40
8900000: system.memobj: Got response for addr 0x15b40
8900000: system.memobj: Got request for addr 0x94eb0
8977000: system.memobj: Got response for addr 0x94eb0
8977000: system.memobj: Got request for addr 0x15b40
9054000: system.memobj: Got response for addr 0x15b40
9054000: system.memobj: Got request for addr 0x15b48
9103000: system.memobj: Got response for addr 0x15b48
9103000: system.memobj: Got request for addr 0x15b48
9152000: system.memobj: Got response for addr 0x15b48
9152000: system.memobj: Got request for addr 0x15b10
9201000: system.memobj: Got response for addr 0x15b10
9201000: system.memobj: Got request for addr 0x15b10
9250000: system.memobj: Got response for addr 0x15b10
9250000: system.memobj: Got request for addr 0x15b18
9299000: system.memobj: Got response for addr 0x15b18
9299000: system.memobj: Got request for addr 0x15b18
9348000: system.memobj: Got response for addr 0x15b18
9348000: system.memobj: Got request for addr 0x15b20
9397000: system.memobj: Got response for addr 0x15b20
9397000: system.memobj: Got request for addr 0x5eb90
9446000: system.memobj: Got response for addr 0x5eb90
9446000: system.memobj: Got request for addr 0x15c28
9495000: system.memobj: Got response for addr 0x15c28
9495000: system.memobj: Got request for addr 0x15c30
9544000: system.memobj: Got response for addr 0x15c30
9544000: system.memobj: Got request for addr 0x94eb8
9621000: system.memobj: Got response for addr 0x94eb8
9621000: system.memobj: Got request for addr 0x15c30
9698000: system.memobj: Got response for addr 0x15c30
9698000: system.memobj: Got request for addr 0x15c30
9747000: system.memobj: Got response for addr 0x15c30
9747000: system.memobj: Got request for addr 0x15c38
9796000: system.memobj: Got response for addr 0x15c38
9796000: system.memobj: Got request for addr 0x93510
9817000: system.memobj: Got response for addr 0x93510
9817000: system.memobj: Got request for addr 0x15c38
9866000: system.memobj: Got response for addr 0x15c38
9866000: system.memobj: Got request for addr 0x94ec0
9943000: system.memobj: Got response for addr 0x94ec0
9943000: system.memobj: Got request for addr 0x15c40
10020000: system.memobj: Got response for addr 0x15c40
10020000: system.memobj: Got request for addr 0x15c40
10069000: system.memobj: Got response for addr 0x15c40
10069000: system.memobj: Got request for addr 0x15c48
10118000: system.memobj: Got response for addr 0x15c48
10118000: system.memobj: Got request for addr 0x15b10
10167000: system.memobj: Got response for addr 0x15b10
10167000: system.memobj: Got request for addr 0x15b10
10216000: system.memobj: Got response for addr 0x15b10
10216000: system.memobj: Got request for addr 0x15b18
10265000: system.memobj: Got response for addr 0x15b18
10265000: system.memobj: Got request for addr 0x15b18
10314000: system.memobj: Got response for addr 0x15b18
10314000: system.memobj: Got request for addr 0x15b20
10363000: system.memobj: Got response for addr 0x15b20
10363000: system.memobj: Got request for addr 0x5eba0
10412000: system.memobj: Got response for addr 0x5eba0
10412000: system.memobj: Got request for addr 0x15b40
10461000: system.memobj: Got response for addr 0x15b40
10461000: system.memobj: Got request for addr 0x15b40
10510000: system.memobj: Got response for addr 0x15b40
10510000: system.memobj: Got request for addr 0x94ed0
10587000: system.memobj: Got response for addr 0x94ed0
10587000: system.memobj: Got request for addr 0x15b40
10664000: system.memobj: Got response for addr 0x15b40
10664000: system.memobj: Got request for addr 0x15b48
10713000: system.memobj: Got response for addr 0x15b48
10713000: system.memobj: Got request for addr 0x15b48
10762000: system.memobj: Got response for addr 0x15b48
10762000: system.memobj: Got request for addr 0x15b10
10811000: system.memobj: Got response for addr 0x15b10
10811000: system.memobj: Got request for addr 0x15b10
10860000: system.memobj: Got response for addr 0x15b10
10860000: system.memobj: Got request for addr 0x15b18
10909000: system.memobj: Got response for addr 0x15b18
10909000: system.memobj: Got request for addr 0x15b18
10958000: system.memobj: Got response for addr 0x15b18
10958000: system.memobj: Got request for addr 0x15b20
11007000: system.memobj: Got response for addr 0x15b20
11007000: system.memobj: Got request for addr 0x5eba8
11056000: system.memobj: Got response for addr 0x5eba8
11056000: system.memobj: Got request for addr 0x15b40
11105000: system.memobj: Got response for addr 0x15b40
11105000: system.memobj: Got request for addr 0x15b40
11154000: system.memobj: Got response for addr 0x15b40
11154000: system.memobj: Got request for addr 0x94ee0
11231000: system.memobj: Got response for addr 0x94ee0
11231000: system.memobj: Got request for addr 0x15b40
11308000: system.memobj: Got response for addr 0x15b40
11308000: system.memobj: Got request for addr 0x15b48
11357000: system.memobj: Got response for addr 0x15b48
11357000: system.memobj: Got request for addr 0x15b48
11406000: system.memobj: Got response for addr 0x15b48
11406000: system.memobj: Got request for addr 0x15b10
11455000: system.memobj: Got response for addr 0x15b10
11455000: system.memobj: Got request for addr 0x15b10
11504000: system.memobj: Got response for addr 0x15b10
11504000: system.memobj: Got request for addr 0x15b18
11553000: system.memobj: Got response for addr 0x15b18
11553000: system.memobj: Got request for addr 0x15b18
11602000: system.memobj: Got response for addr 0x15b18
11602000: system.memobj: Got request for addr 0x15b20
11651000: system.memobj: Got response for addr 0x15b20
11651000: system.memobj: Got request for addr 0x5ebb0
11700000: system.memobj: Got response for addr 0x5ebb0
11700000: system.memobj: Got request for addr 0x15b40
11749000: system.memobj: Got response for addr 0x15b40
11749000: system.memobj: Got request for addr 0x15b40
11798000: system.memobj: Got response for addr 0x15b40
11798000: system.memobj: Got request for addr 0x94ef0
11875000: system.memobj: Got response for addr 0x94ef0
11875000: system.memobj: Got request for addr 0x15b40
11952000: system.memobj: Got response for addr 0x15b40
11952000: system.memobj: Got request for addr 0x15b48
12001000: system.memobj: Got response for addr 0x15b48
12001000: system.memobj: Got request for addr 0x15b48
12050000: system.memobj: Got response for addr 0x15b48
12050000: system.memobj: Got request for addr 0x15b10
12099000: system.memobj: Got response for addr 0x15b10
12099000: system.memobj: Got request for addr 0x15b10
12148000: system.memobj: Got response for addr 0x15b10
12148000: system.memobj: Got request for addr 0x15b18
12197000: system.memobj: Got response for addr 0x15b18
12197000: system.memobj: Got request for addr 0x15b18
12246000: system.memobj: Got response for addr 0x15b18
12246000: system.memobj: Got request for addr 0x15b20
12295000: system.memobj: Got response for addr 0x15b20
12295000: system.memobj: Got request for addr 0x5ebc0
12344000: system.memobj: Got response for addr 0x5ebc0
12344000: system.memobj: Got request for addr 0x15bd0
12393000: system.memobj: Got response for addr 0x15bd0
12393000: system.memobj: Got request for addr 0x94ef8
12470000: system.memobj: Got response for addr 0x94ef8
12470000: system.memobj: Got request for addr 0x15bd0
12547000: system.memobj: Got response for addr 0x15bd0
12547000: system.memobj: Got request for addr 0x15bd8
12596000: system.memobj: Got response for addr 0x15bd8
12596000: system.memobj: Got request for addr 0x15bd8
12645000: system.memobj: Got response for addr 0x15bd8
12645000: system.memobj: Got request for addr 0x15bd8
12694000: system.memobj: Got response for addr 0x15bd8
12694000: system.memobj: Got request for addr 0x94f00
12771000: system.memobj: Got response for addr 0x94f00
12771000: system.memobj: Got request for addr 0x15be0
12848000: system.memobj: Got response for addr 0x15be0
12848000: system.memobj: Got request for addr 0x15be0
12897000: system.memobj: Got response for addr 0x15be0
12897000: system.memobj: Got request for addr 0x15be8
12946000: system.memobj: Got response for addr 0x15be8
12946000: system.memobj: Got request for addr 0x15b10
12995000: system.memobj: Got response for addr 0x15b10
12995000: system.memobj: Got request for addr 0x15b10
13044000: system.memobj: Got response for addr 0x15b10
13044000: system.memobj: Got request for addr 0x15b18
13093000: system.memobj: Got response for addr 0x15b18
13093000: system.memobj: Got request for addr 0x15b18
13142000: system.memobj: Got response for addr 0x15b18
13142000: system.memobj: Got request for addr 0x15b20
13191000: system.memobj: Got response for addr 0x15b20
13191000: system.memobj: Got request for addr 0x5ebc8
13240000: system.memobj: Got response for addr 0x5ebc8
13240000: system.memobj: Got request for addr 0x15bb8
13289000: system.memobj: Got response for addr 0x15bb8
13289000: system.memobj: Got request for addr 0x94f08
13366000: system.memobj: Got response for addr 0x94f08
13366000: system.memobj: Got request for addr 0x15bb8
13443000: system.memobj: Got response for addr 0x15bb8
13443000: system.memobj: Got request for addr 0x15bb8
13492000: system.memobj: Got response for addr 0x15bb8
13492000: system.memobj: Got request for addr 0x15bc0
13541000: system.memobj: Got response for addr 0x15bc0
13541000: system.memobj: Got request for addr 0x15bc0
13590000: system.memobj: Got response for addr 0x15bc0
13590000: system.memobj: Got request for addr 0x94f10
13667000: system.memobj: Got response for addr 0x94f10
13667000: system.memobj: Got request for addr 0x15bc0
13744000: system.memobj: Got response for addr 0x15bc0
13744000: system.memobj: Got request for addr 0x15bc8
13793000: system.memobj: Got response for addr 0x15bc8
13793000: system.memobj: Got request for addr 0x15b10
13842000: system.memobj: Got response for addr 0x15b10
13842000: system.memobj: Got request for addr 0x15b10
13891000: system.memobj: Got response for addr 0x15b10
13891000: system.memobj: Got request for addr 0x15b18
13940000: system.memobj: Got response for addr 0x15b18
13940000: system.memobj: Got request for addr 0x15b18
13989000: system.memobj: Got response for addr 0x15b18
13989000: system.memobj: Got request for addr 0x15b20
14038000: system.memobj: Got response for addr 0x15b20
14038000: system.memobj: Got request for addr 0x5ebd0
14087000: system.memobj: Got response for addr 0x5ebd0
14087000: system.memobj: Got request for addr 0x15ba0
14136000: system.memobj: Got response for addr 0x15ba0
14136000: system.memobj: Got request for addr 0x94f18
14213000: system.memobj: Got response for addr 0x94f18
14213000: system.memobj: Got request for addr 0x15ba0
14290000: system.memobj: Got response for addr 0x15ba0
14290000: system.memobj: Got request for addr 0x15ba0
14339000: system.memobj: Got response for addr 0x15ba0
14339000: system.memobj: Got request for addr 0x15ba8
14388000: system.memobj: Got response for addr 0x15ba8
14388000: system.memobj: Got request for addr 0x15ba8
14437000: system.memobj: Got response for addr 0x15ba8
14437000: system.memobj: Got request for addr 0x94f20
14514000: system.memobj: Got response for addr 0x94f20
14514000: system.memobj: Got request for addr 0x15ba8
14591000: system.memobj: Got response for addr 0x15ba8
14591000: system.memobj: Got request for addr 0x15bb0
14640000: system.memobj: Got response for addr 0x15bb0
14640000: system.memobj: Got request for addr 0x15b10
14689000: system.memobj: Got response for addr 0x15b10
14689000: system.memobj: Got request for addr 0x15b10
14738000: system.memobj: Got response for addr 0x15b10
14738000: system.memobj: Got request for addr 0x15b18
14787000: system.memobj: Got response for addr 0x15b18
14787000: system.memobj: Got request for addr 0x15b18
14836000: system.memobj: Got response for addr 0x15b18
14836000: system.memobj: Got request for addr 0x15b20
14885000: system.memobj: Got response for addr 0x15b20
14885000: system.memobj: Got request for addr 0x5ebd8
14934000: system.memobj: Got response for addr 0x5ebd8
14934000: system.memobj: Got request for addr 0x15b88
14983000: system.memobj: Got response for addr 0x15b88
14983000: system.memobj: Got request for addr 0x94f28
15060000: system.memobj: Got response for addr 0x94f28
15060000: system.memobj: Got request for addr 0x15b88
15137000: system.memobj: Got response for addr 0x15b88
15137000: system.memobj: Got request for addr 0x15b88
15186000: system.memobj: Got response for addr 0x15b88
15186000: system.memobj: Got request for addr 0x15b90
15235000: system.memobj: Got response for addr 0x15b90
15235000: system.memobj: Got request for addr 0x15b90
15284000: system.memobj: Got response for addr 0x15b90
15284000: system.memobj: Got request for addr 0x94f30
15361000: system.memobj: Got response for addr 0x94f30
15361000: system.memobj: Got request for addr 0x15b90
15438000: system.memobj: Got response for addr 0x15b90
15438000: system.memobj: Got request for addr 0x15b98
15487000: system.memobj: Got response for addr 0x15b98
15487000: system.memobj: Got request for addr 0x15b10
15536000: system.memobj: Got response for addr 0x15b10
15536000: system.memobj: Got request for addr 0x15b10
15585000: system.memobj: Got response for addr 0x15b10
15585000: system.memobj: Got request for addr 0x15b18
15909000: system.memobj: Got response for addr 0x15b18
15909000: system.memobj: Got request for addr 0x15b18
15958000: system.memobj: Got response for addr 0x15b18
15958000: system.memobj: Got request for addr 0x15b20
16007000: system.memobj: Got response for addr 0x15b20
16007000: system.memobj: Got request for addr 0x5ec20
16070000: system.memobj: Got response for addr 0x5ec20
16070000: system.memobj: Got request for addr 0x15b20
16119000: system.memobj: Got response for addr 0x15b20
16119000: system.memobj: Got request for addr 0x94f38
16196000: system.memobj: Got response for addr 0x94f38
16196000: system.memobj: Got request for addr 0x15b20
16273000: system.memobj: Got response for addr 0x15b20
16273000: system.memobj: Got request for addr 0x15b28
16322000: system.memobj: Got response for addr 0x15b28
16322000: system.memobj: Got request for addr 0x15b28
16371000: system.memobj: Got response for addr 0x15b28
16371000: system.memobj: Got request for addr 0x15b30
16420000: system.memobj: Got response for addr 0x15b30
16420000: system.memobj: Got request for addr 0x93590
16441000: system.memobj: Got response for addr 0x93590
16441000: system.memobj: Got request for addr 0x15b30
16490000: system.memobj: Got response for addr 0x15b30
16490000: system.memobj: Got request for addr 0x15b38
16539000: system.memobj: Got response for addr 0x15b38
16539000: system.memobj: Got request for addr 0x7fa00
16560000: system.memobj: Got response for addr 0x7fa00
16560000: system.memobj: Got request for addr 0x15b38
16609000: system.memobj: Got response for addr 0x15b38
16609000: system.memobj: Got request for addr 0x15b38
16658000: system.memobj: Got response for addr 0x15b38
16658000: system.memobj: Got request for addr 0x15b40
16707000: system.memobj: Got response for addr 0x15b40
16707000: system.memobj: Got request for addr 0x15b40
16756000: system.memobj: Got response for addr 0x15b40
16756000: system.memobj: Got request for addr 0x94f40
16833000: system.memobj: Got response for addr 0x94f40
16833000: system.memobj: Got request for addr 0x15b40
16910000: system.memobj: Got response for addr 0x15b40
16910000: system.memobj: Got request for addr 0x15b48
16959000: system.memobj: Got response for addr 0x15b48
16959000: system.memobj: Got request for addr 0x15b48
17008000: system.memobj: Got response for addr 0x15b48
17008000: system.memobj: Got request for addr 0x15b10
17057000: system.memobj: Got response for addr 0x15b10
17057000: system.memobj: Got request for addr 0x15b10
17106000: system.memobj: Got response for addr 0x15b10
17106000: system.memobj: Got request for addr 0x15b18
17155000: system.memobj: Got response for addr 0x15b18
17155000: system.memobj: Got request for addr 0x15b40
17204000: system.memobj: Got response for addr 0x15b40
17204000: system.memobj: Got request for addr 0x15b40
17253000: system.memobj: Got response for addr 0x15b40
17253000: system.memobj: Got request for addr 0x94f50
17330000: system.memobj: Got response for addr 0x94f50
17330000: system.memobj: Got request for addr 0x15b40
17407000: system.memobj: Got response for addr 0x15b40
17407000: system.memobj: Got request for addr 0x15b48
17456000: system.memobj: Got response for addr 0x15b48
17456000: system.memobj: Got request for addr 0x15b48
17505000: system.memobj: Got response for addr 0x15b48
17505000: system.memobj: Got request for addr 0x15b10
17554000: system.memobj: Got response for addr 0x15b10
17554000: system.memobj: Got request for addr 0x15b10
17603000: system.memobj: Got response for addr 0x15b10
17603000: system.memobj: Got request for addr 0x15b18
17652000: system.memobj: Got response for addr 0x15b18
17652000: system.memobj: Got request for addr 0x15b40
17701000: system.memobj: Got response for addr 0x15b40
17701000: system.memobj: Got request for addr 0x15b40
17750000: system.memobj: Got response for addr 0x15b40
17750000: system.memobj: Got request for addr 0x94f60
17827000: system.memobj: Got response for addr 0x94f60
17827000: system.memobj: Got request for addr 0x15b40
17904000: system.memobj: Got response for addr 0x15b40
17904000: system.memobj: Got request for addr 0x15b48
17953000: system.memobj: Got response for addr 0x15b48
17953000: system.memobj: Got request for addr 0x15b48
18002000: system.memobj: Got response for addr 0x15b48
18002000: system.memobj: Got request for addr 0x15b10
18051000: system.memobj: Got response for addr 0x15b10
18051000: system.memobj: Got request for addr 0x15b10
18100000: system.memobj: Got response for addr 0x15b10
18100000: system.memobj: Got request for addr 0x15b18
18149000: system.memobj: Got response for addr 0x15b18
18149000: system.memobj: Got request for addr 0x15b18
18198000: system.memobj: Got response for addr 0x15b18
18198000: system.memobj: Got request for addr 0x15b20
18247000: system.memobj: Got response for addr 0x15b20
18247000: system.memobj: Got request for addr 0x5ebe0
18296000: system.memobj: Got response for addr 0x5ebe0
18296000: system.memobj: Got request for addr 0x15b40
18345000: system.memobj: Got response for addr 0x15b40
18345000: system.memobj: Got request for addr 0x15b40
18394000: system.memobj: Got response for addr 0x15b40
18394000: system.memobj: Got request for addr 0x94f70
18471000: system.memobj: Got response for addr 0x94f70
18471000: system.memobj: Got request for addr 0x15b40
18548000: system.memobj: Got response for addr 0x15b40
18548000: system.memobj: Got request for addr 0x15b48
18597000: system.memobj: Got response for addr 0x15b48
18597000: system.memobj: Got request for addr 0x15b48
18646000: system.memobj: Got response for addr 0x15b48
18646000: system.memobj: Got request for addr 0x15b48
18695000: system.memobj: Got response for addr 0x15b48
18695000: system.memobj: Got request for addr 0x15b48
18744000: system.memobj: Got response for addr 0x15b48
18744000: system.memobj: Got request for addr 0x15b50
18793000: system.memobj: Got response for addr 0x15b50
18793000: system.memobj: Got request for addr 0x15b50
18842000: system.memobj: Got response for addr 0x15b50
18842000: system.memobj: Got request for addr 0x94be8
18919000: system.memobj: Got response for addr 0x94be8
18919000: system.memobj: Got request for addr 0x9a80
18982000: system.memobj: Got response for addr 0x9a80
18982000: system.memobj: Got request for addr 0x807b0
19002000: system.memobj: Got response for addr 0x807b0
19002000: system.memobj: Got request for addr 0x9a88
19051000: system.memobj: Got response for addr 0x9a88
19051000: system.memobj: Got request for addr 0x9a88
19100000: system.memobj: Got response for addr 0x9a88
19100000: system.memobj: Got request for addr 0x9a90
19149000: system.memobj: Got response for addr 0x9a90
19149000: system.memobj: Got request for addr 0x9a90
19198000: system.memobj: Got response for addr 0x9a90
19198000: system.memobj: Got request for addr 0x9a90
19247000: system.memobj: Got response for addr 0x9a90
19247000: system.memobj: Got request for addr 0x9a98
19296000: system.memobj: Got response for addr 0x9a98
19296000: system.memobj: Got request for addr 0x9a98
19345000: system.memobj: Got response for addr 0x9a98
19345000: system.memobj: Got request for addr 0x9aa0
19394000: system.memobj: Got response for addr 0x9aa0
19394000: system.memobj: Got request for addr 0x9aa0
19443000: system.memobj: Got response for addr 0x9aa0
19443000: system.memobj: Got request for addr 0x94be8
19464000: system.memobj: Got response for addr 0x94be8
19464000: system.memobj: Got request for addr 0x13290
19527000: system.memobj: Got response for addr 0x13290
19527000: system.memobj: Got request for addr 0x13290
19576000: system.memobj: Got response for addr 0x13290
19576000: system.memobj: Got request for addr 0x13298
19625000: system.memobj: Got response for addr 0x13298
19625000: system.memobj: Got request for addr 0x13298
19674000: system.memobj: Got response for addr 0x13298
19674000: system.memobj: Got request for addr 0x13298
19723000: system.memobj: Got response for addr 0x13298
19723000: system.memobj: Got request for addr 0x132a0
19772000: system.memobj: Got response for addr 0x132a0
19772000: system.memobj: Got request for addr 0x132a0
19821000: system.memobj: Got response for addr 0x132a0
19821000: system.memobj: Got request for addr 0x94be8
19870000: system.memobj: Got response for addr 0x94be8
19870000: system.memobj: Got request for addr 0x9aa0
19919000: system.memobj: Got response for addr 0x9aa0
19919000: system.memobj: Got request for addr 0x9aa8
19968000: system.memobj: Got response for addr 0x9aa8
19968000: system.memobj: Got request for addr 0x9aa8
20017000: system.memobj: Got response for addr 0x9aa8
20017000: system.memobj: Got request for addr 0x9ab0
20066000: system.memobj: Got response for addr 0x9ab0
20066000: system.memobj: Got request for addr 0x9ab0
20115000: system.memobj: Got response for addr 0x9ab0
20115000: system.memobj: Got request for addr 0x9ab8
20164000: system.memobj: Got response for addr 0x9ab8
20164000: system.memobj: Got request for addr 0x94c92
20213000: system.memobj: Got response for addr 0x94c92
20213000: system.memobj: Got request for addr 0x9ab8
20276000: system.memobj: Got response for addr 0x9ab8
20276000: system.memobj: Got request for addr 0x9ab8
20325000: system.memobj: Got response for addr 0x9ab8
20325000: system.memobj: Got request for addr 0x9ab8
20374000: system.memobj: Got response for addr 0x9ab8
20374000: system.memobj: Got request for addr 0x9ac0
20423000: system.memobj: Got response for addr 0x9ac0
20423000: system.memobj: Got request for addr 0x9ac0
20472000: system.memobj: Got response for addr 0x9ac0
20472000: system.memobj: Got request for addr 0x9ac0
20521000: system.memobj: Got response for addr 0x9ac0
20521000: system.memobj: Got request for addr 0x9ac0
20570000: system.memobj: Got response for addr 0x9ac0
20570000: system.memobj: Got request for addr 0x9ac8
20619000: system.memobj: Got response for addr 0x9ac8
20619000: system.memobj: Got request for addr 0x9ac8
20668000: system.memobj: Got response for addr 0x9ac8
20668000: system.memobj: Got request for addr 0x9ac8
20717000: system.memobj: Got response for addr 0x9ac8
20717000: system.memobj: Got request for addr 0x9ad0
20766000: system.memobj: Got response for addr 0x9ad0
20766000: system.memobj: Got request for addr 0x9ad0
20815000: system.memobj: Got response for addr 0x9ad0
20815000: system.memobj: Got request for addr 0x9ad0
20864000: system.memobj: Got response for addr 0x9ad0
20864000: system.memobj: Got request for addr 0x9ae8
20913000: system.memobj: Got response for addr 0x9ae8
20913000: system.memobj: Got request for addr 0x9ae8
20962000: system.memobj: Got response for addr 0x9ae8
20962000: system.memobj: Got request for addr 0x94c93
21011000: system.memobj: Got response for addr 0x94c93
21011000: system.memobj: Got request for addr 0x9ae8
21060000: system.memobj: Got response for addr 0x9ae8
21060000: system.memobj: Got request for addr 0x9af0
21123000: system.memobj: Got response for addr 0x9af0
21123000: system.memobj: Got request for addr 0x9af0
21172000: system.memobj: Got response for addr 0x9af0
21172000: system.memobj: Got request for addr 0x9af0
21221000: system.memobj: Got response for addr 0x9af0
21221000: system.memobj: Got request for addr 0x9af0
21270000: system.memobj: Got response for addr 0x9af0
21270000: system.memobj: Got request for addr 0x9af8
21319000: system.memobj: Got response for addr 0x9af8
21319000: system.memobj: Got request for addr 0x9af8
21368000: system.memobj: Got response for addr 0x9af8
21368000: system.memobj: Got request for addr 0x9af8
21417000: system.memobj: Got response for addr 0x9af8
21417000: system.memobj: Got request for addr 0x9af8
21466000: system.memobj: Got response for addr 0x9af8
21466000: system.memobj: Got request for addr 0x9b00
21515000: system.memobj: Got response for addr 0x9b00
21515000: system.memobj: Got request for addr 0x9b00
21564000: system.memobj: Got response for addr 0x9b00
21564000: system.memobj: Got request for addr 0x9b00
21613000: system.memobj: Got response for addr 0x9b00
21613000: system.memobj: Got request for addr 0x9b00
21662000: system.memobj: Got response for addr 0x9b00
21662000: system.memobj: Got request for addr 0x9b08
21711000: system.memobj: Got response for addr 0x9b08
21711000: system.memobj: Got request for addr 0x94c94
21760000: system.memobj: Got response for addr 0x94c94
21760000: system.memobj: Got request for addr 0x9b08
21809000: system.memobj: Got response for addr 0x9b08
21809000: system.memobj: Got request for addr 0x9b08
21858000: system.memobj: Got response for addr 0x9b08
21858000: system.memobj: Got request for addr 0x9b08
21907000: system.memobj: Got response for addr 0x9b08
21907000: system.memobj: Got request for addr 0x9ad0
21970000: system.memobj: Got response for addr 0x9ad0
21970000: system.memobj: Got request for addr 0x9ad0
22019000: system.memobj: Got response for addr 0x9ad0
22019000: system.memobj: Got request for addr 0x9ad0
22068000: system.memobj: Got response for addr 0x9ad0
22068000: system.memobj: Got request for addr 0x9ae8
22117000: system.memobj: Got response for addr 0x9ae8
22117000: system.memobj: Got request for addr 0x9ae8
22166000: system.memobj: Got response for addr 0x9ae8
22166000: system.memobj: Got request for addr 0x94c95
22215000: system.memobj: Got response for addr 0x94c95
22215000: system.memobj: Got request for addr 0x9ae8
22264000: system.memobj: Got response for addr 0x9ae8
22264000: system.memobj: Got request for addr 0x9af0
22313000: system.memobj: Got response for addr 0x9af0
22313000: system.memobj: Got request for addr 0x9af0
22362000: system.memobj: Got response for addr 0x9af0
22362000: system.memobj: Got request for addr 0x9af0
22411000: system.memobj: Got response for addr 0x9af0
22411000: system.memobj: Got request for addr 0x9af0
22460000: system.memobj: Got response for addr 0x9af0
22460000: system.memobj: Got request for addr 0x9af8
22509000: system.memobj: Got response for addr 0x9af8
22509000: system.memobj: Got request for addr 0x9af8
22558000: system.memobj: Got response for addr 0x9af8
22558000: system.memobj: Got request for addr 0x9af8
22607000: system.memobj: Got response for addr 0x9af8
22607000: system.memobj: Got request for addr 0x9af8
22656000: system.memobj: Got response for addr 0x9af8
22656000: system.memobj: Got request for addr 0x9b00
22705000: system.memobj: Got response for addr 0x9b00
22705000: system.memobj: Got request for addr 0x9b00
22754000: system.memobj: Got response for addr 0x9b00
22754000: system.memobj: Got request for addr 0x9b00
22817000: system.memobj: Got response for addr 0x9b00
22817000: system.memobj: Got request for addr 0x9b00
22866000: system.memobj: Got response for addr 0x9b00
22866000: system.memobj: Got request for addr 0x9b08
22915000: system.memobj: Got response for addr 0x9b08
22915000: system.memobj: Got request for addr 0x94c96
22964000: system.memobj: Got response for addr 0x94c96
22964000: system.memobj: Got request for addr 0x9b08
23013000: system.memobj: Got response for addr 0x9b08
23013000: system.memobj: Got request for addr 0x9b08
23062000: system.memobj: Got response for addr 0x9b08
23062000: system.memobj: Got request for addr 0x9b08
23111000: system.memobj: Got response for addr 0x9b08
23111000: system.memobj: Got request for addr 0x9ad0
23160000: system.memobj: Got response for addr 0x9ad0
23160000: system.memobj: Got request for addr 0x9ad0
23209000: system.memobj: Got response for addr 0x9ad0
23209000: system.memobj: Got request for addr 0x9ad0
23258000: system.memobj: Got response for addr 0x9ad0
23258000: system.memobj: Got request for addr 0x9ae8
23307000: system.memobj: Got response for addr 0x9ae8
23307000: system.memobj: Got request for addr 0x9ae8
23356000: system.memobj: Got response for addr 0x9ae8
23356000: system.memobj: Got request for addr 0x94c97
23405000: system.memobj: Got response for addr 0x94c97
23405000: system.memobj: Got request for addr 0x9ae8
23695000: system.memobj: Got response for addr 0x9ae8
23695000: system.memobj: Got request for addr 0x9af0
23744000: system.memobj: Got response for addr 0x9af0
23744000: system.memobj: Got request for addr 0x9af0
23793000: system.memobj: Got response for addr 0x9af0
23793000: system.memobj: Got request for addr 0x9af0
23842000: system.memobj: Got response for addr 0x9af0
23842000: system.memobj: Got request for addr 0x9af0
23891000: system.memobj: Got response for addr 0x9af0
23891000: system.memobj: Got request for addr 0x9af8
23940000: system.memobj: Got response for addr 0x9af8
23940000: system.memobj: Got request for addr 0x9af8
23989000: system.memobj: Got response for addr 0x9af8
23989000: system.memobj: Got request for addr 0x9af8
24038000: system.memobj: Got response for addr 0x9af8
24038000: system.memobj: Got request for addr 0x9af8
24087000: system.memobj: Got response for addr 0x9af8
24087000: system.memobj: Got request for addr 0x9b00
24136000: system.memobj: Got response for addr 0x9b00
24136000: system.memobj: Got request for addr 0x9b00
24185000: system.memobj: Got response for addr 0x9b00
24185000: system.memobj: Got request for addr 0x9b00
24234000: system.memobj: Got response for addr 0x9b00
24234000: system.memobj: Got request for addr 0x9b10
24283000: system.memobj: Got response for addr 0x9b10
24283000: system.memobj: Got request for addr 0x9b10
24332000: system.memobj: Got response for addr 0x9b10
24332000: system.memobj: Got request for addr 0x9b20
24381000: system.memobj: Got response for addr 0x9b20
24381000: system.memobj: Got request for addr 0x9b28
24430000: system.memobj: Got response for addr 0x9b28
24430000: system.memobj: Got request for addr 0x9b28
24493000: system.memobj: Got response for addr 0x9b28
24493000: system.memobj: Got request for addr 0x9b28
24542000: system.memobj: Got response for addr 0x9b28
24542000: system.memobj: Got request for addr 0x9b30
24591000: system.memobj: Got response for addr 0x9b30
24591000: system.memobj: Got request for addr 0x93530
24612000: system.memobj: Got response for addr 0x93530
24612000: system.memobj: Got request for addr 0x9b30
24661000: system.memobj: Got response for addr 0x9b30
24661000: system.memobj: Got request for addr 0x9b38
24710000: system.memobj: Got response for addr 0x9b38
24710000: system.memobj: Got request for addr 0x94be8
24731000: system.memobj: Got response for addr 0x94be8
24731000: system.memobj: Got request for addr 0x9fe0
24780000: system.memobj: Got response for addr 0x9fe0
24780000: system.memobj: Got request for addr 0x9fe0
24829000: system.memobj: Got response for addr 0x9fe0
24829000: system.memobj: Got request for addr 0x9fe8
24878000: system.memobj: Got response for addr 0x9fe8
24878000: system.memobj: Got request for addr 0x9fe8
24927000: system.memobj: Got response for addr 0x9fe8
24927000: system.memobj: Got request for addr 0x9d00
24976000: system.memobj: Got response for addr 0x9d00
24976000: system.memobj: Got request for addr 0x94bd0
24997000: system.memobj: Got response for addr 0x94bd0
24997000: system.memobj: Got request for addr 0x9d00
25046000: system.memobj: Got response for addr 0x9d00
25046000: system.memobj: Got request for addr 0x9d08
25095000: system.memobj: Got response for addr 0x9d08
25095000: system.memobj: Got request for addr 0x94bd8
25116000: system.memobj: Got response for addr 0x94bd8
25116000: system.memobj: Got request for addr 0x9d08
25165000: system.memobj: Got response for addr 0x9d08
25165000: system.memobj: Got request for addr 0x9d08
25214000: system.memobj: Got response for addr 0x9d08
25214000: system.memobj: Got request for addr 0x9d10
25263000: system.memobj: Got response for addr 0x9d10
25263000: system.memobj: Got request for addr 0x94be0
25284000: system.memobj: Got response for addr 0x94be0
25284000: system.memobj: Got request for addr 0x9d10
25333000: system.memobj: Got response for addr 0x9d10
25333000: system.memobj: Got request for addr 0x94bb8
25354000: system.memobj: Got response for addr 0x94bb8
25354000: system.memobj: Got request for addr 0x9d10
25417000: system.memobj: Got response for addr 0x9d10
25417000: system.memobj: Got request for addr 0x9d18
25466000: system.memobj: Got response for addr 0x9d18
25466000: system.memobj: Got request for addr 0x9d18
25515000: system.memobj: Got response for addr 0x9d18
25515000: system.memobj: Got request for addr 0x94bc0
25536000: system.memobj: Got response for addr 0x94bc0
25536000: system.memobj: Got request for addr 0x9d18
25585000: system.memobj: Got response for addr 0x9d18
25585000: system.memobj: Got request for addr 0x9d20
25634000: system.memobj: Got response for addr 0x9d20
25634000: system.memobj: Got request for addr 0x94bc8
25655000: system.memobj: Got response for addr 0x94bc8
25655000: system.memobj: Got request for addr 0x9d20
25704000: system.memobj: Got response for addr 0x9d20
25704000: system.memobj: Got request for addr 0x9d28
25753000: system.memobj: Got response for addr 0x9d28
25753000: system.memobj: Got request for addr 0x934e0
25816000: system.memobj: Got response for addr 0x934e0
25816000: system.memobj: Got request for addr 0x9d28
25865000: system.memobj: Got response for addr 0x9d28
25865000: system.memobj: Got request for addr 0x9d30
25914000: system.memobj: Got response for addr 0x9d30
25914000: system.memobj: Got request for addr 0x9d30
25963000: system.memobj: Got response for addr 0x9d30
25963000: system.memobj: Got request for addr 0x9d38
26012000: system.memobj: Got response for addr 0x9d38
26012000: system.memobj: Got request for addr 0x94bb0
26033000: system.memobj: Got response for addr 0x94bb0
26033000: system.memobj: Got request for addr 0x9d38
26082000: system.memobj: Got response for addr 0x9d38
26082000: system.memobj: Got request for addr 0x9d40
26131000: system.memobj: Got response for addr 0x9d40
26131000: system.memobj: Got request for addr 0x94ba8
26152000: system.memobj: Got response for addr 0x94ba8
26152000: system.memobj: Got request for addr 0x9d40
26201000: system.memobj: Got response for addr 0x9d40
26201000: system.memobj: Got request for addr 0x94ba0
26222000: system.memobj: Got response for addr 0x94ba0
26222000: system.memobj: Got request for addr 0x9d48
26271000: system.memobj: Got response for addr 0x9d48
26271000: system.memobj: Got request for addr 0x9d48
26320000: system.memobj: Got response for addr 0x9d48
26320000: system.memobj: Got request for addr 0x9d48
26383000: system.memobj: Got response for addr 0x9d48
26383000: system.memobj: Got request for addr 0x9d50
26432000: system.memobj: Got response for addr 0x9d50
26432000: system.memobj: Got request for addr 0x93510
26452000: system.memobj: Got response for addr 0x93510
26452000: system.memobj: Got request for addr 0x9d50
26501000: system.memobj: Got response for addr 0x9d50
26501000: system.memobj: Got request for addr 0x9d50
26550000: system.memobj: Got response for addr 0x9d50
26550000: system.memobj: Got request for addr 0x9d58
26599000: system.memobj: Got response for addr 0x9d58
26599000: system.memobj: Got request for addr 0x9d58
26648000: system.memobj: Got response for addr 0x9d58
26648000: system.memobj: Got request for addr 0x9d60
26697000: system.memobj: Got response for addr 0x9d60
26697000: system.memobj: Got request for addr 0x9d60
26746000: system.memobj: Got response for addr 0x9d60
26746000: system.memobj: Got request for addr 0x9d60
26795000: system.memobj: Got response for addr 0x9d60
26795000: system.memobj: Got request for addr 0x9d68
26844000: system.memobj: Got response for addr 0x9d68
26844000: system.memobj: Got request for addr 0x9d68
26893000: system.memobj: Got response for addr 0x9d68
26893000: system.memobj: Got request for addr 0x9d68
26942000: system.memobj: Got response for addr 0x9d68
26942000: system.memobj: Got request for addr 0x9d68
26991000: system.memobj: Got response for addr 0x9d68
26991000: system.memobj: Got request for addr 0x9d70
27040000: system.memobj: Got response for addr 0x9d70
27040000: system.memobj: Got request for addr 0x40
27103000: system.memobj: Got response for addr 0x40
27103000: system.memobj: Got request for addr 0x9d70
27152000: system.memobj: Got response for addr 0x9d70
27152000: system.memobj: Got request for addr 0x9d78
27201000: system.memobj: Got response for addr 0x9d78
27201000: system.memobj: Got request for addr 0x9d78
27264000: system.memobj: Got response for addr 0x9d78
27264000: system.memobj: Got request for addr 0x9d78
27313000: system.memobj: Got response for addr 0x9d78
27313000: system.memobj: Got request for addr 0x9d80
27362000: system.memobj: Got response for addr 0x9d80
27362000: system.memobj: Got request for addr 0x9d70
27411000: system.memobj: Got response for addr 0x9d70
27411000: system.memobj: Got request for addr 0x78
27460000: system.memobj: Got response for addr 0x78
27460000: system.memobj: Got request for addr 0x9d70
27509000: system.memobj: Got response for addr 0x9d70
27509000: system.memobj: Got request for addr 0x9d78
27558000: system.memobj: Got response for addr 0x9d78
27558000: system.memobj: Got request for addr 0x9d78
27607000: system.memobj: Got response for addr 0x9d78
27607000: system.memobj: Got request for addr 0x9d78
27656000: system.memobj: Got response for addr 0x9d78
27656000: system.memobj: Got request for addr 0x9d80
27705000: system.memobj: Got response for addr 0x9d80
27705000: system.memobj: Got request for addr 0x9d70
27754000: system.memobj: Got response for addr 0x9d70
27754000: system.memobj: Got request for addr 0xb0
27803000: system.memobj: Got response for addr 0xb0
27803000: system.memobj: Got request for addr 0x9d70
27852000: system.memobj: Got response for addr 0x9d70
27852000: system.memobj: Got request for addr 0x9d78
27901000: system.memobj: Got response for addr 0x9d78
27901000: system.memobj: Got request for addr 0x9d78
27950000: system.memobj: Got response for addr 0x9d78
27950000: system.memobj: Got request for addr 0x9d78
27999000: system.memobj: Got response for addr 0x9d78
27999000: system.memobj: Got request for addr 0x9d80
28048000: system.memobj: Got response for addr 0x9d80
28048000: system.memobj: Got request for addr 0x9d70
28097000: system.memobj: Got response for addr 0x9d70
28097000: system.memobj: Got request for addr 0xe8
28146000: system.memobj: Got response for addr 0xe8
28146000: system.memobj: Got request for addr 0x9d70
28209000: system.memobj: Got response for addr 0x9d70
28209000: system.memobj: Got request for addr 0x9d78
28258000: system.memobj: Got response for addr 0x9d78
28258000: system.memobj: Got request for addr 0x9d78
28307000: system.memobj: Got response for addr 0x9d78
28307000: system.memobj: Got request for addr 0x9d78
28356000: system.memobj: Got response for addr 0x9d78
28356000: system.memobj: Got request for addr 0x9d80
28405000: system.memobj: Got response for addr 0x9d80
28405000: system.memobj: Got request for addr 0x9d70
28454000: system.memobj: Got response for addr 0x9d70
28454000: system.memobj: Got request for addr 0x120
28503000: system.memobj: Got response for addr 0x120
28503000: system.memobj: Got request for addr 0x9d70
28552000: system.memobj: Got response for addr 0x9d70
28552000: system.memobj: Got request for addr 0x9d78
28601000: system.memobj: Got response for addr 0x9d78
28601000: system.memobj: Got request for addr 0x9d78
28650000: system.memobj: Got response for addr 0x9d78
28650000: system.memobj: Got request for addr 0x9d78
28699000: system.memobj: Got response for addr 0x9d78
28699000: system.memobj: Got request for addr 0x9d80
28748000: system.memobj: Got response for addr 0x9d80
28748000: system.memobj: Got request for addr 0x9d80
28797000: system.memobj: Got response for addr 0x9d80
28797000: system.memobj: Got request for addr 0x9d80
28846000: system.memobj: Got response for addr 0x9d80
28846000: system.memobj: Got request for addr 0x9d88
28895000: system.memobj: Got response for addr 0x9d88
28895000: system.memobj: Got request for addr 0x9d88
28944000: system.memobj: Got response for addr 0x9d88
28944000: system.memobj: Got request for addr 0x9d88
28993000: system.memobj: Got response for addr 0x9d88
28993000: system.memobj: Got request for addr 0x9d90
29056000: system.memobj: Got response for addr 0x9d90
29056000: system.memobj: Got request for addr 0x9d90
29105000: system.memobj: Got response for addr 0x9d90
29105000: system.memobj: Got request for addr 0x9d90
29154000: system.memobj: Got response for addr 0x9d90
29154000: system.memobj: Got request for addr 0x9d90
29203000: system.memobj: Got response for addr 0x9d90
29203000: system.memobj: Got request for addr 0x9d98
29252000: system.memobj: Got response for addr 0x9d98
29252000: system.memobj: Got request for addr 0x94bb8
29272000: system.memobj: Got response for addr 0x94bb8
29272000: system.memobj: Got request for addr 0x9d98
29321000: system.memobj: Got response for addr 0x9d98
29321000: system.memobj: Got request for addr 0x94bc0
29384000: system.memobj: Got response for addr 0x94bc0
29384000: system.memobj: Got request for addr 0x9d98
29433000: system.memobj: Got response for addr 0x9d98
29433000: system.memobj: Got request for addr 0x9da0
29482000: system.memobj: Got response for addr 0x9da0
29482000: system.memobj: Got request for addr 0x94bc8
29531000: system.memobj: Got response for addr 0x94bc8
29531000: system.memobj: Got request for addr 0x9da0
29580000: system.memobj: Got response for addr 0x9da0
29580000: system.memobj: Got request for addr 0x9da8
29629000: system.memobj: Got response for addr 0x9da8
29629000: system.memobj: Got request for addr 0x94bd0
29678000: system.memobj: Got response for addr 0x94bd0
29678000: system.memobj: Got request for addr 0x9da8
29727000: system.memobj: Got response for addr 0x9da8
29727000: system.memobj: Got request for addr 0x94bd8
29776000: system.memobj: Got response for addr 0x94bd8
29776000: system.memobj: Got request for addr 0x9da8
29825000: system.memobj: Got response for addr 0x9da8
29825000: system.memobj: Got request for addr 0x9db0
29874000: system.memobj: Got response for addr 0x9db0
29874000: system.memobj: Got request for addr 0x94be0
29923000: system.memobj: Got response for addr 0x94be0
29923000: system.memobj: Got request for addr 0x9db0
29972000: system.memobj: Got response for addr 0x9db0
29972000: system.memobj: Got request for addr 0x9db0
30021000: system.memobj: Got response for addr 0x9db0
30021000: system.memobj: Got request for addr 0x94be8
30070000: system.memobj: Got response for addr 0x94be8
30070000: system.memobj: Got request for addr 0x9b38
30119000: system.memobj: Got response for addr 0x9b38
30119000: system.memobj: Got request for addr 0x9b38
30182000: system.memobj: Got response for addr 0x9b38
30182000: system.memobj: Got request for addr 0x9b48
30231000: system.memobj: Got response for addr 0x9b48
30231000: system.memobj: Got request for addr 0x9b50
30280000: system.memobj: Got response for addr 0x9b50
30280000: system.memobj: Got request for addr 0x92df8
30300000: system.memobj: Got response for addr 0x92df8
30300000: system.memobj: Got request for addr 0x9b50
30349000: system.memobj: Got response for addr 0x9b50
30349000: system.memobj: Got request for addr 0x9b50
30398000: system.memobj: Got response for addr 0x9b50
30398000: system.memobj: Got request for addr 0x9b58
30447000: system.memobj: Got response for addr 0x9b58
30447000: system.memobj: Got request for addr 0x94be8
30468000: system.memobj: Got response for addr 0x94be8
30468000: system.memobj: Got request for addr 0x16270
30531000: system.memobj: Got response for addr 0x16270
30531000: system.memobj: Got request for addr 0x161e0
30580000: system.memobj: Got response for addr 0x161e0
30580000: system.memobj: Got request for addr 0x161e0
30629000: system.memobj: Got response for addr 0x161e0
30629000: system.memobj: Got request for addr 0x161e8
30678000: system.memobj: Got response for addr 0x161e8
30678000: system.memobj: Got request for addr 0x94bd0
30699000: system.memobj: Got response for addr 0x94bd0
30699000: system.memobj: Got request for addr 0x161e8
30748000: system.memobj: Got response for addr 0x161e8
30748000: system.memobj: Got request for addr 0x94bd8
30769000: system.memobj: Got response for addr 0x94bd8
30769000: system.memobj: Got request for addr 0x161e8
30818000: system.memobj: Got response for addr 0x161e8
30818000: system.memobj: Got request for addr 0x161f0
30867000: system.memobj: Got response for addr 0x161f0
30867000: system.memobj: Got request for addr 0x94be0
30888000: system.memobj: Got response for addr 0x94be0
30888000: system.memobj: Got request for addr 0x161f0
30937000: system.memobj: Got response for addr 0x161f0
30937000: system.memobj: Got request for addr 0x161f0
30986000: system.memobj: Got response for addr 0x161f0
30986000: system.memobj: Got request for addr 0x161f8
31035000: system.memobj: Got response for addr 0x161f8
31035000: system.memobj: Got request for addr 0x161f8
31084000: system.memobj: Got response for addr 0x161f8
31084000: system.memobj: Got request for addr 0x161f8
31133000: system.memobj: Got response for addr 0x161f8
31133000: system.memobj: Got request for addr 0x16200
31182000: system.memobj: Got response for addr 0x16200
31182000: system.memobj: Got request for addr 0x16200
31482000: system.memobj: Got response for addr 0x16200
31482000: system.memobj: Got request for addr 0x16200
31531000: system.memobj: Got response for addr 0x16200
31531000: system.memobj: Got request for addr 0x16218
31580000: system.memobj: Got response for addr 0x16218
31580000: system.memobj: Got request for addr 0x16218
31629000: system.memobj: Got response for addr 0x16218
31629000: system.memobj: Got request for addr 0x807b0
31650000: system.memobj: Got response for addr 0x807b0
31650000: system.memobj: Got request for addr 0x16220
31699000: system.memobj: Got response for addr 0x16220
31699000: system.memobj: Got request for addr 0x16260
31748000: system.memobj: Got response for addr 0x16260
31748000: system.memobj: Got request for addr 0x809e0
31811000: system.memobj: Got response for addr 0x809e0
31811000: system.memobj: Got request for addr 0x16268
31860000: system.memobj: Got response for addr 0x16268
31860000: system.memobj: Got request for addr 0x94bc8
31881000: system.memobj: Got response for addr 0x94bc8
31881000: system.memobj: Got request for addr 0x19eb0
31944000: system.memobj: Got response for addr 0x19eb0
31944000: system.memobj: Got request for addr 0x94bc6
31965000: system.memobj: Got response for addr 0x94bc6
31965000: system.memobj: Got request for addr 0x19eb0
32014000: system.memobj: Got response for addr 0x19eb0
32014000: system.memobj: Got request for addr 0x19eb8
32063000: system.memobj: Got response for addr 0x19eb8
32063000: system.memobj: Got request for addr 0x94bc6
32126000: system.memobj: Got response for addr 0x94bc6
32126000: system.memobj: Got request for addr 0x19eb8
32175000: system.memobj: Got response for addr 0x19eb8
32175000: system.memobj: Got request for addr 0x19eb8
32224000: system.memobj: Got response for addr 0x19eb8
32224000: system.memobj: Got request for addr 0x19ec0
32273000: system.memobj: Got response for addr 0x19ec0
32273000: system.memobj: Got request for addr 0x19ec0
32322000: system.memobj: Got response for addr 0x19ec0
32322000: system.memobj: Got request for addr 0x19ec0
32371000: system.memobj: Got response for addr 0x19ec0
32371000: system.memobj: Got request for addr 0x19ec8
32420000: system.memobj: Got response for addr 0x19ec8
32420000: system.memobj: Got request for addr 0x94bc6
32441000: system.memobj: Got response for addr 0x94bc6
32441000: system.memobj: Got request for addr 0x19ec8
32490000: system.memobj: Got response for addr 0x19ec8
32490000: system.memobj: Got request for addr 0x94bc6
32539000: system.memobj: Got response for addr 0x94bc6
32539000: system.memobj: Got request for addr 0x19ec8
32588000: system.memobj: Got response for addr 0x19ec8
32588000: system.memobj: Got request for addr 0x94bc8
32637000: system.memobj: Got response for addr 0x94bc8
32637000: system.memobj: Got request for addr 0x16268
32686000: system.memobj: Got response for addr 0x16268
32686000: system.memobj: Got request for addr 0x16220
32735000: system.memobj: Got response for addr 0x16220
32735000: system.memobj: Got request for addr 0x16228
32784000: system.memobj: Got response for addr 0x16228
32784000: system.memobj: Got request for addr 0x93598
32805000: system.memobj: Got response for addr 0x93598
32805000: system.memobj: Got request for addr 0x16228
32854000: system.memobj: Got response for addr 0x16228
32854000: system.memobj: Got request for addr 0x935a0
32875000: system.memobj: Got response for addr 0x935a0
32875000: system.memobj: Got request for addr 0x16230
32924000: system.memobj: Got response for addr 0x16230
32924000: system.memobj: Got request for addr 0x92df8
32945000: system.memobj: Got response for addr 0x92df8
32945000: system.memobj: Got request for addr 0x16230
32994000: system.memobj: Got response for addr 0x16230
32994000: system.memobj: Got request for addr 0x16238
33043000: system.memobj: Got response for addr 0x16238
33043000: system.memobj: Got request for addr 0x94bc8
33064000: system.memobj: Got response for addr 0x94bc8
33064000: system.memobj: Got request for addr 0x16170
33113000: system.memobj: Got response for addr 0x16170
33113000: system.memobj: Got request for addr 0x94bb8
33134000: system.memobj: Got response for addr 0x94bb8
33134000: system.memobj: Got request for addr 0x16170
33183000: system.memobj: Got response for addr 0x16170
33183000: system.memobj: Got request for addr 0x16178
33246000: system.memobj: Got response for addr 0x16178
33246000: system.memobj: Got request for addr 0x94bc0
33267000: system.memobj: Got response for addr 0x94bc0
33267000: system.memobj: Got request for addr 0x16178
33316000: system.memobj: Got response for addr 0x16178
33316000: system.memobj: Got request for addr 0x16178
33365000: system.memobj: Got response for addr 0x16178
33365000: system.memobj: Got request for addr 0x16180
33414000: system.memobj: Got response for addr 0x16180
33414000: system.memobj: Got request for addr 0x93590
33434000: system.memobj: Got response for addr 0x93590
33434000: system.memobj: Got request for addr 0x16180
33483000: system.memobj: Got response for addr 0x16180
33483000: system.memobj: Got request for addr 0x16180
33532000: system.memobj: Got response for addr 0x16180
33532000: system.memobj: Got request for addr 0x16188
33581000: system.memobj: Got response for addr 0x16188
33581000: system.memobj: Got request for addr 0x94bb8
33601000: system.memobj: Got response for addr 0x94bb8
33601000: system.memobj: Got request for addr 0x16188
33650000: system.memobj: Got response for addr 0x16188
33650000: system.memobj: Got request for addr 0x16190
33699000: system.memobj: Got response for addr 0x16190
33699000: system.memobj: Got request for addr 0x94bc0
33748000: system.memobj: Got response for addr 0x94bc0
33748000: system.memobj: Got request for addr 0x16190
33797000: system.memobj: Got response for addr 0x16190
33797000: system.memobj: Got request for addr 0x16190
33846000: system.memobj: Got response for addr 0x16190
33846000: system.memobj: Got request for addr 0x94bc8
33895000: system.memobj: Got response for addr 0x94bc8
33895000: system.memobj: Got request for addr 0x16238
33944000: system.memobj: Got response for addr 0x16238
33944000: system.memobj: Got request for addr 0x16240
33993000: system.memobj: Got response for addr 0x16240
33993000: system.memobj: Got request for addr 0x94bc8
34014000: system.memobj: Got response for addr 0x94bc8
34014000: system.memobj: Got request for addr 0x15c70
34091000: system.memobj: Got response for addr 0x15c70
34091000: system.memobj: Got request for addr 0x94bc0
34112000: system.memobj: Got response for addr 0x94bc0
34112000: system.memobj: Got request for addr 0x15c70
34161000: system.memobj: Got response for addr 0x15c70
34161000: system.memobj: Got request for addr 0x94bb8
34182000: system.memobj: Got response for addr 0x94bb8
34182000: system.memobj: Got request for addr 0x15c70
34231000: system.memobj: Got response for addr 0x15c70
34231000: system.memobj: Got request for addr 0x94bb0
34252000: system.memobj: Got response for addr 0x94bb0
34252000: system.memobj: Got request for addr 0x15c70
34301000: system.memobj: Got response for addr 0x15c70
34301000: system.memobj: Got request for addr 0x94ba8
34322000: system.memobj: Got response for addr 0x94ba8
34322000: system.memobj: Got request for addr 0x15c70
34371000: system.memobj: Got response for addr 0x15c70
34371000: system.memobj: Got request for addr 0x15c78
34420000: system.memobj: Got response for addr 0x15c78
34420000: system.memobj: Got request for addr 0x15c78
34469000: system.memobj: Got response for addr 0x15c78
34469000: system.memobj: Got request for addr 0x15c78
34518000: system.memobj: Got response for addr 0x15c78
34518000: system.memobj: Got request for addr 0x15c80
34567000: system.memobj: Got response for addr 0x15c80
34567000: system.memobj: Got request for addr 0x15c80
34616000: system.memobj: Got response for addr 0x15c80
34616000: system.memobj: Got request for addr 0x15c80
34665000: system.memobj: Got response for addr 0x15c80
34665000: system.memobj: Got request for addr 0x15c88
34714000: system.memobj: Got response for addr 0x15c88
34714000: system.memobj: Got request for addr 0x93540
34734000: system.memobj: Got response for addr 0x93540
34734000: system.memobj: Got request for addr 0x15c88
34783000: system.memobj: Got response for addr 0x15c88
34783000: system.memobj: Got request for addr 0x15c90
34832000: system.memobj: Got response for addr 0x15c90
34832000: system.memobj: Got request for addr 0x934c0
34853000: system.memobj: Got response for addr 0x934c0
34853000: system.memobj: Got request for addr 0x15c90
34902000: system.memobj: Got response for addr 0x15c90
34902000: system.memobj: Got request for addr 0x15ca0
34951000: system.memobj: Got response for addr 0x15ca0
34951000: system.memobj: Got request for addr 0x15ca8
35014000: system.memobj: Got response for addr 0x15ca8
35014000: system.memobj: Got request for addr 0x15ca8
35063000: system.memobj: Got response for addr 0x15ca8
35063000: system.memobj: Got request for addr 0x15ca8
35112000: system.memobj: Got response for addr 0x15ca8
35112000: system.memobj: Got request for addr 0x15cb0
35161000: system.memobj: Got response for addr 0x15cb0
35161000: system.memobj: Got request for addr 0x94b98
35182000: system.memobj: Got response for addr 0x94b98
35182000: system.memobj: Got request for addr 0x1a320
35245000: system.memobj: Got response for addr 0x1a320
35245000: system.memobj: Got request for addr 0x94b80
35266000: system.memobj: Got response for addr 0x94b80
35266000: system.memobj: Got request for addr 0x1a320
35315000: system.memobj: Got response for addr 0x1a320
35315000: system.memobj: Got request for addr 0x1a328
35364000: system.memobj: Got response for addr 0x1a328
35364000: system.memobj: Got request for addr 0x94b90
35385000: system.memobj: Got response for addr 0x94b90
35385000: system.memobj: Got request for addr 0x1a328
35434000: system.memobj: Got response for addr 0x1a328
35434000: system.memobj: Got request for addr 0x1a328
35483000: system.memobj: Got response for addr 0x1a328
35483000: system.memobj: Got request for addr 0x1a330
35532000: system.memobj: Got response for addr 0x1a330
35532000: system.memobj: Got request for addr 0x94b70
35553000: system.memobj: Got response for addr 0x94b70
35553000: system.memobj: Got request for addr 0x1a330
35602000: system.memobj: Got response for addr 0x1a330
35602000: system.memobj: Got request for addr 0x94b78
35623000: system.memobj: Got response for addr 0x94b78
35623000: system.memobj: Got request for addr 0x1a330
35672000: system.memobj: Got response for addr 0x1a330
35672000: system.memobj: Got request for addr 0x1a338
35721000: system.memobj: Got response for addr 0x1a338
35721000: system.memobj: Got request for addr 0x94b88
35742000: system.memobj: Got response for addr 0x94b88
35742000: system.memobj: Got request for addr 0x1a338
35791000: system.memobj: Got response for addr 0x1a338
35791000: system.memobj: Got request for addr 0x1a340
35840000: system.memobj: Got response for addr 0x1a340
35840000: system.memobj: Got request for addr 0x94b68
35861000: system.memobj: Got response for addr 0x94b68
35861000: system.memobj: Got request for addr 0x11d10
35924000: system.memobj: Got response for addr 0x11d10
35924000: system.memobj: Got request for addr 0x11d10
35973000: system.memobj: Got response for addr 0x11d10
35973000: system.memobj: Got request for addr 0x11d10
36022000: system.memobj: Got response for addr 0x11d10
36022000: system.memobj: Got request for addr 0x11d18
36071000: system.memobj: Got response for addr 0x11d18
36071000: system.memobj: Got request for addr 0x11d18
36120000: system.memobj: Got response for addr 0x11d18
36120000: system.memobj: Got request for addr 0x11d18
36169000: system.memobj: Got response for addr 0x11d18
36169000: system.memobj: Got request for addr 0x11d18
36218000: system.memobj: Got response for addr 0x11d18
36218000: system.memobj: Got request for addr 0x11d20
36267000: system.memobj: Got response for addr 0x11d20
36267000: system.memobj: Got request for addr 0x11d20
36316000: system.memobj: Got response for addr 0x11d20
36316000: system.memobj: Got request for addr 0x11d20
36365000: system.memobj: Got response for addr 0x11d20
36365000: system.memobj: Got request for addr 0x11d28
36414000: system.memobj: Got response for addr 0x11d28
36414000: system.memobj: Got request for addr 0x11d28
36463000: system.memobj: Got response for addr 0x11d28
36463000: system.memobj: Got request for addr 0x11d28
36512000: system.memobj: Got response for addr 0x11d28
36512000: system.memobj: Got request for addr 0x11d30
36561000: system.memobj: Got response for addr 0x11d30
36561000: system.memobj: Got request for addr 0x5ed49
36624000: system.memobj: Got response for addr 0x5ed49
36624000: system.memobj: Got request for addr 0x11d30
36673000: system.memobj: Got response for addr 0x11d30
36673000: system.memobj: Got request for addr 0x11d38
36722000: system.memobj: Got response for addr 0x11d38
36722000: system.memobj: Got request for addr 0x11d38
36785000: system.memobj: Got response for addr 0x11d38
36785000: system.memobj: Got request for addr 0x11d38
36834000: system.memobj: Got response for addr 0x11d38
36834000: system.memobj: Got request for addr 0x11d38
36883000: system.memobj: Got response for addr 0x11d38
36883000: system.memobj: Got request for addr 0x11d40
36932000: system.memobj: Got response for addr 0x11d40
36932000: system.memobj: Got request for addr 0x11d30
36981000: system.memobj: Got response for addr 0x11d30
36981000: system.memobj: Got request for addr 0x5ed4a
37030000: system.memobj: Got response for addr 0x5ed4a
37030000: system.memobj: Got request for addr 0x11d30
37079000: system.memobj: Got response for addr 0x11d30
37079000: system.memobj: Got request for addr 0x11d38
37128000: system.memobj: Got response for addr 0x11d38
37128000: system.memobj: Got request for addr 0x11d38
37177000: system.memobj: Got response for addr 0x11d38
37177000: system.memobj: Got request for addr 0x11d38
37226000: system.memobj: Got response for addr 0x11d38
37226000: system.memobj: Got request for addr 0x11d38
37275000: system.memobj: Got response for addr 0x11d38
37275000: system.memobj: Got request for addr 0x11d40
37324000: system.memobj: Got response for addr 0x11d40
37324000: system.memobj: Got request for addr 0x11d30
37373000: system.memobj: Got response for addr 0x11d30
37373000: system.memobj: Got request for addr 0x5ed4b
37422000: system.memobj: Got response for addr 0x5ed4b
37422000: system.memobj: Got request for addr 0x11d30
37471000: system.memobj: Got response for addr 0x11d30
37471000: system.memobj: Got request for addr 0x11d38
[...]
446034000: system.memobj: Got request for addr 0xb680
446083000: system.memobj: Got response for addr 0xb680
446083000: system.memobj: Got request for addr 0x94b68
446104000: system.memobj: Got response for addr 0x94b68
446104000: system.memobj: Got request for addr 0xb680
446153000: system.memobj: Got response for addr 0xb680
446153000: system.memobj: Got request for addr 0x94b70
446174000: system.memobj: Got response for addr 0x94b70
446174000: system.memobj: Got request for addr 0xb680
446223000: system.memobj: Got response for addr 0xb680
446223000: system.memobj: Got request for addr 0xb688
446272000: system.memobj: Got response for addr 0xb688
446272000: system.memobj: Got request for addr 0xb688
446321000: system.memobj: Got response for addr 0xb688
446321000: system.memobj: Got request for addr 0x80218
446341000: system.memobj: Got response for addr 0x80218
446341000: system.memobj: Got request for addr 0xb688
446390000: system.memobj: Got response for addr 0xb688
446390000: system.memobj: Got request for addr 0xb690
446453000: system.memobj: Got response for addr 0xb690
446453000: system.memobj: Got request for addr 0xb690
446502000: system.memobj: Got response for addr 0xb690
446502000: system.memobj: Got request for addr 0xb690
446551000: system.memobj: Got response for addr 0xb690
446551000: system.memobj: Got request for addr 0xb698
446600000: system.memobj: Got response for addr 0xb698
446600000: system.memobj: Got request for addr 0xb698
446649000: system.memobj: Got response for addr 0xb698
446649000: system.memobj: Got request for addr 0xb698
446698000: system.memobj: Got response for addr 0xb698
446698000: system.memobj: Got request for addr 0x801e0
446718000: system.memobj: Got response for addr 0x801e0
446718000: system.memobj: Got request for addr 0xb698
446767000: system.memobj: Got response for addr 0xb698
446767000: system.memobj: Got request for addr 0xb6a0
446816000: system.memobj: Got response for addr 0xb6a0
446816000: system.memobj: Got request for addr 0xb6a0
446865000: system.memobj: Got response for addr 0xb6a0
446865000: system.memobj: Got request for addr 0xb6a0
446914000: system.memobj: Got response for addr 0xb6a0
446914000: system.memobj: Got request for addr 0x80220
446977000: system.memobj: Got response for addr 0x80220
446977000: system.memobj: Got request for addr 0xb6a0
447026000: system.memobj: Got response for addr 0xb6a0
447026000: system.memobj: Got request for addr 0xb6a8
447075000: system.memobj: Got response for addr 0xb6a8
447075000: system.memobj: Got request for addr 0xb6a8
447124000: system.memobj: Got response for addr 0xb6a8
447124000: system.memobj: Got request for addr 0xb6b0
447173000: system.memobj: Got response for addr 0xb6b0
447173000: system.memobj: Got request for addr 0xb6b0
447222000: system.memobj: Got response for addr 0xb6b0
447222000: system.memobj: Got request for addr 0xb6b8
447271000: system.memobj: Got response for addr 0xb6b8
447271000: system.memobj: Got request for addr 0x94b48
447292000: system.memobj: Got response for addr 0x94b48
447292000: system.memobj: Got request for addr 0x14130
447369000: system.memobj: Got response for addr 0x14130
447369000: system.memobj: Got request for addr 0x14130
447418000: system.memobj: Got response for addr 0x14130
447418000: system.memobj: Got request for addr 0x14138
447467000: system.memobj: Got response for addr 0x14138
447467000: system.memobj: Got request for addr 0x14138
447516000: system.memobj: Got response for addr 0x14138
447516000: system.memobj: Got request for addr 0x14138
447565000: system.memobj: Got response for addr 0x14138
447565000: system.memobj: Got request for addr 0x14140
447614000: system.memobj: Got response for addr 0x14140
447614000: system.memobj: Got request for addr 0x14140
447663000: system.memobj: Got response for addr 0x14140
447663000: system.memobj: Got request for addr 0x94b48
447740000: system.memobj: Got response for addr 0x94b48
447740000: system.memobj: Got request for addr 0xb6b8
447803000: system.memobj: Got response for addr 0xb6b8
447803000: system.memobj: Got request for addr 0xb6c0
447852000: system.memobj: Got response for addr 0xb6c0
447852000: system.memobj: Got request for addr 0x801e0
447872000: system.memobj: Got response for addr 0x801e0
447872000: system.memobj: Got request for addr 0xb6c0
447921000: system.memobj: Got response for addr 0xb6c0
447921000: system.memobj: Got request for addr 0xb6c0
447970000: system.memobj: Got response for addr 0xb6c0
447970000: system.memobj: Got request for addr 0xb6c8
448019000: system.memobj: Got response for addr 0xb6c8
448019000: system.memobj: Got request for addr 0x80218
448040000: system.memobj: Got response for addr 0x80218
448040000: system.memobj: Got request for addr 0xb6c8
448089000: system.memobj: Got response for addr 0xb6c8
448089000: system.memobj: Got request for addr 0x80220
448110000: system.memobj: Got response for addr 0x80220
448110000: system.memobj: Got request for addr 0xb6c8
448159000: system.memobj: Got response for addr 0xb6c8
448159000: system.memobj: Got request for addr 0xb6f0
448208000: system.memobj: Got response for addr 0xb6f0
448208000: system.memobj: Got request for addr 0xb6f0
448257000: system.memobj: Got response for addr 0xb6f0
448257000: system.memobj: Got request for addr 0x801e0
448278000: system.memobj: Got response for addr 0x801e0
448278000: system.memobj: Got request for addr 0xb6f0
448327000: system.memobj: Got response for addr 0xb6f0
448327000: system.memobj: Got request for addr 0xb6f8
448376000: system.memobj: Got response for addr 0xb6f8
448376000: system.memobj: Got request for addr 0x94b58
448425000: system.memobj: Got response for addr 0x94b58
448425000: system.memobj: Got request for addr 0xb6f8
448474000: system.memobj: Got response for addr 0xb6f8
448474000: system.memobj: Got request for addr 0x94b60
448523000: system.memobj: Got response for addr 0x94b60
448523000: system.memobj: Got request for addr 0xb6f8
448572000: system.memobj: Got response for addr 0xb6f8
448572000: system.memobj: Got request for addr 0xb700
448621000: system.memobj: Got response for addr 0xb700
448621000: system.memobj: Got request for addr 0x94b68
448670000: system.memobj: Got response for addr 0x94b68
448670000: system.memobj: Got request for addr 0xb700
448719000: system.memobj: Got response for addr 0xb700
448719000: system.memobj: Got request for addr 0xb708
448768000: system.memobj: Got response for addr 0xb708
448768000: system.memobj: Got request for addr 0x94b70
448817000: system.memobj: Got response for addr 0x94b70
448817000: system.memobj: Got request for addr 0xb708
448880000: system.memobj: Got response for addr 0xb708
448880000: system.memobj: Got request for addr 0xb708
448929000: system.memobj: Got response for addr 0xb708
448929000: system.memobj: Got request for addr 0x94b78
448949000: system.memobj: Got response for addr 0x94b78
448949000: system.memobj: Got request for addr 0xb940
448998000: system.memobj: Got response for addr 0xb940
448998000: system.memobj: Got request for addr 0xb948
449047000: system.memobj: Got response for addr 0xb948
449047000: system.memobj: Got request for addr 0x80210
449068000: system.memobj: Got response for addr 0x80210
449068000: system.memobj: Got request for addr 0xb948
449117000: system.memobj: Got response for addr 0xb948
449117000: system.memobj: Got request for addr 0xb950
449166000: system.memobj: Got response for addr 0xb950
449166000: system.memobj: Got request for addr 0x80208
449187000: system.memobj: Got response for addr 0x80208
449187000: system.memobj: Got request for addr 0xb950
449236000: system.memobj: Got response for addr 0xb950
449236000: system.memobj: Got request for addr 0xb950
449285000: system.memobj: Got response for addr 0xb950
449285000: system.memobj: Got request for addr 0xb958
449334000: system.memobj: Got response for addr 0xb958
449334000: system.memobj: Got request for addr 0x80200
449355000: system.memobj: Got response for addr 0x80200
449355000: system.memobj: Got request for addr 0xb958
449404000: system.memobj: Got response for addr 0xb958
449404000: system.memobj: Got request for addr 0xb960
449453000: system.memobj: Got response for addr 0xb960
449453000: system.memobj: Got request for addr 0x801f0
449474000: system.memobj: Got response for addr 0x801f0
449474000: system.memobj: Got request for addr 0xb960
449523000: system.memobj: Got response for addr 0xb960
449523000: system.memobj: Got request for addr 0xb968
449572000: system.memobj: Got response for addr 0xb968
449572000: system.memobj: Got request for addr 0x801e8
449593000: system.memobj: Got response for addr 0x801e8
449593000: system.memobj: Got request for addr 0xb968
449642000: system.memobj: Got response for addr 0xb968
449642000: system.memobj: Got request for addr 0xb970
449691000: system.memobj: Got response for addr 0xb970
449691000: system.memobj: Got request for addr 0x801f8
449712000: system.memobj: Got response for addr 0x801f8
449712000: system.memobj: Got request for addr 0xb970
449761000: system.memobj: Got response for addr 0xb970
449761000: system.memobj: Got request for addr 0xb978
449824000: system.memobj: Got response for addr 0xb978
449824000: system.memobj: Got request for addr 0x94b80
449873000: system.memobj: Got response for addr 0x94b80
449873000: system.memobj: Got request for addr 0xb978
449922000: system.memobj: Got response for addr 0xb978
449922000: system.memobj: Got request for addr 0x94b88
449971000: system.memobj: Got response for addr 0x94b88
449971000: system.memobj: Got request for addr 0xb978
450020000: system.memobj: Got response for addr 0xb978
450020000: system.memobj: Got request for addr 0xb980
450069000: system.memobj: Got response for addr 0xb980
450069000: system.memobj: Got request for addr 0xb980
450118000: system.memobj: Got response for addr 0xb980
450118000: system.memobj: Got request for addr 0x94b90
450167000: system.memobj: Got response for addr 0x94b90
450167000: system.memobj: Got request for addr 0xb980
450216000: system.memobj: Got response for addr 0xb980
450216000: system.memobj: Got request for addr 0xb988
450265000: system.memobj: Got response for addr 0xb988
450265000: system.memobj: Got request for addr 0xb988
450314000: system.memobj: Got response for addr 0xb988
450314000: system.memobj: Got request for addr 0x94b98
450363000: system.memobj: Got response for addr 0x94b98
450363000: system.memobj: Got request for addr 0x27cd8
450426000: system.memobj: Got response for addr 0x27cd8
450426000: system.memobj: Got request for addr 0x27cd8
450475000: system.memobj: Got response for addr 0x27cd8
450475000: system.memobj: Got request for addr 0x27cd8
450524000: system.memobj: Got response for addr 0x27cd8
450524000: system.memobj: Got request for addr 0x27ce0
450573000: system.memobj: Got response for addr 0x27ce0
450573000: system.memobj: Got request for addr 0x80218
450593000: system.memobj: Got response for addr 0x80218
450593000: system.memobj: Got request for addr 0x27ce0
450642000: system.memobj: Got response for addr 0x27ce0
450642000: system.memobj: Got request for addr 0x27ce0
450691000: system.memobj: Got response for addr 0x27ce0
450691000: system.memobj: Got request for addr 0x27ce8
450740000: system.memobj: Got response for addr 0x27ce8
450740000: system.memobj: Got request for addr 0x80210
450761000: system.memobj: Got response for addr 0x80210
450761000: system.memobj: Got request for addr 0x27ce8
450810000: system.memobj: Got response for addr 0x27ce8
450810000: system.memobj: Got request for addr 0x80208
450831000: system.memobj: Got response for addr 0x80208
450831000: system.memobj: Got request for addr 0x27ce8
450880000: system.memobj: Got response for addr 0x27ce8
450880000: system.memobj: Got request for addr 0x27cf0
450929000: system.memobj: Got response for addr 0x27cf0
450929000: system.memobj: Got request for addr 0x80200
450950000: system.memobj: Got response for addr 0x80200
450950000: system.memobj: Got request for addr 0x27cf0
450999000: system.memobj: Got response for addr 0x27cf0
450999000: system.memobj: Got request for addr 0x801f8
451020000: system.memobj: Got response for addr 0x801f8
451020000: system.memobj: Got request for addr 0x27cf0
451069000: system.memobj: Got response for addr 0x27cf0
451069000: system.memobj: Got request for addr 0x27cf8
451118000: system.memobj: Got response for addr 0x27cf8
451118000: system.memobj: Got request for addr 0x801e8
451139000: system.memobj: Got response for addr 0x801e8
451139000: system.memobj: Got request for addr 0x27cf8
451188000: system.memobj: Got response for addr 0x27cf8
451188000: system.memobj: Got request for addr 0x801f0
451209000: system.memobj: Got response for addr 0x801f0
451209000: system.memobj: Got request for addr 0x27cf8
451258000: system.memobj: Got response for addr 0x27cf8
451258000: system.memobj: Got request for addr 0x94ba0
451307000: system.memobj: Got response for addr 0x94ba0
451307000: system.memobj: Got request for addr 0x27d00
451356000: system.memobj: Got response for addr 0x27d00
451356000: system.memobj: Got request for addr 0x27d00
451419000: system.memobj: Got response for addr 0x27d00
451419000: system.memobj: Got request for addr 0x94ba8
451439000: system.memobj: Got response for addr 0x94ba8
451439000: system.memobj: Got request for addr 0xc050
451502000: system.memobj: Got response for addr 0xc050
451502000: system.memobj: Got request for addr 0xc020
451551000: system.memobj: Got response for addr 0xc020
451551000: system.memobj: Got request for addr 0xc028
451600000: system.memobj: Got response for addr 0xc028
451600000: system.memobj: Got request for addr 0x80288
451621000: system.memobj: Got response for addr 0x80288
451621000: system.memobj: Got request for addr 0xc028
451939000: system.memobj: Got response for addr 0xc028
451939000: system.memobj: Got request for addr 0x80248
452002000: system.memobj: Got response for addr 0x80248
452002000: system.memobj: Got request for addr 0xc028
452051000: system.memobj: Got response for addr 0xc028
452051000: system.memobj: Got request for addr 0xc030
452100000: system.memobj: Got response for addr 0xc030
452100000: system.memobj: Got request for addr 0xc030
452149000: system.memobj: Got response for addr 0xc030
452149000: system.memobj: Got request for addr 0xc008
452198000: system.memobj: Got response for addr 0xc008
452198000: system.memobj: Got request for addr 0x80460
452247000: system.memobj: Got response for addr 0x80460
452247000: system.memobj: Got request for addr 0xc008
452296000: system.memobj: Got response for addr 0xc008
452296000: system.memobj: Got request for addr 0xc008
452345000: system.memobj: Got response for addr 0xc008
452345000: system.memobj: Got request for addr 0xc008
452394000: system.memobj: Got response for addr 0xc008
452394000: system.memobj: Got request for addr 0xc010
452443000: system.memobj: Got response for addr 0xc010
452443000: system.memobj: Got request for addr 0xc010
452492000: system.memobj: Got response for addr 0xc010
452492000: system.memobj: Got request for addr 0xc010
452541000: system.memobj: Got response for addr 0xc010
452541000: system.memobj: Got request for addr 0xc020
452590000: system.memobj: Got response for addr 0xc020
452590000: system.memobj: Got request for addr 0xc028
452639000: system.memobj: Got response for addr 0xc028
452639000: system.memobj: Got request for addr 0x80508
452660000: system.memobj: Got response for addr 0x80508
452660000: system.memobj: Got request for addr 0xc028
452709000: system.memobj: Got response for addr 0xc028
452709000: system.memobj: Got request for addr 0x804c8
452758000: system.memobj: Got response for addr 0x804c8
452758000: system.memobj: Got request for addr 0xc028
452807000: system.memobj: Got response for addr 0xc028
452807000: system.memobj: Got request for addr 0xc030
452856000: system.memobj: Got response for addr 0xc030
452856000: system.memobj: Got request for addr 0xc030
452919000: system.memobj: Got response for addr 0xc030
452919000: system.memobj: Got request for addr 0xc030
452968000: system.memobj: Got response for addr 0xc030
452968000: system.memobj: Got request for addr 0xc038
453017000: system.memobj: Got response for addr 0xc038
453017000: system.memobj: Got request for addr 0xc038
453066000: system.memobj: Got response for addr 0xc038
453066000: system.memobj: Got request for addr 0x94bb8
453129000: system.memobj: Got response for addr 0x94bb8
453129000: system.memobj: Got request for addr 0xc038
453178000: system.memobj: Got response for addr 0xc038
453178000: system.memobj: Got request for addr 0x94bc0
453227000: system.memobj: Got response for addr 0x94bc0
453227000: system.memobj: Got request for addr 0xc038
453276000: system.memobj: Got response for addr 0xc038
453276000: system.memobj: Got request for addr 0x94bc8
453296000: system.memobj: Got response for addr 0x94bc8
453296000: system.memobj: Got request for addr 0xa920
453359000: system.memobj: Got response for addr 0xa920
453359000: system.memobj: Got request for addr 0xa928
453408000: system.memobj: Got response for addr 0xa928
453408000: system.memobj: Got request for addr 0xa928
453457000: system.memobj: Got response for addr 0xa928
453457000: system.memobj: Got request for addr 0xa930
453506000: system.memobj: Got response for addr 0xa930
453506000: system.memobj: Got request for addr 0xa930
453555000: system.memobj: Got response for addr 0xa930
453555000: system.memobj: Got request for addr 0xa930
453604000: system.memobj: Got response for addr 0xa930
453604000: system.memobj: Got request for addr 0xa930
453653000: system.memobj: Got response for addr 0xa930
453653000: system.memobj: Got request for addr 0xa938
453702000: system.memobj: Got response for addr 0xa938
453702000: system.memobj: Got request for addr 0x94bc8
453723000: system.memobj: Got response for addr 0x94bc8
453723000: system.memobj: Got request for addr 0x132b0
453786000: system.memobj: Got response for addr 0x132b0
453786000: system.memobj: Got request for addr 0x94bc0
453807000: system.memobj: Got response for addr 0x94bc0
453807000: system.memobj: Got request for addr 0x132b0
453856000: system.memobj: Got response for addr 0x132b0
453856000: system.memobj: Got request for addr 0x132b8
453905000: system.memobj: Got response for addr 0x132b8
453905000: system.memobj: Got request for addr 0x94bb8
453926000: system.memobj: Got response for addr 0x94bb8
453926000: system.memobj: Got request for addr 0x132b8
453975000: system.memobj: Got response for addr 0x132b8
453975000: system.memobj: Got request for addr 0x132c0
454024000: system.memobj: Got response for addr 0x132c0
454024000: system.memobj: Got request for addr 0x94bb0
454045000: system.memobj: Got response for addr 0x94bb0
454045000: system.memobj: Got request for addr 0x132c0
454094000: system.memobj: Got response for addr 0x132c0
454094000: system.memobj: Got request for addr 0x132c0
454143000: system.memobj: Got response for addr 0x132c0
454143000: system.memobj: Got request for addr 0x94ba8
454164000: system.memobj: Got response for addr 0x94ba8
454164000: system.memobj: Got request for addr 0x132c0
454213000: system.memobj: Got response for addr 0x132c0
454213000: system.memobj: Got request for addr 0x132c8
454262000: system.memobj: Got response for addr 0x132c8
454262000: system.memobj: Got request for addr 0x132c8
454311000: system.memobj: Got response for addr 0x132c8
454311000: system.memobj: Got request for addr 0x132e0
454360000: system.memobj: Got response for addr 0x132e0
454360000: system.memobj: Got request for addr 0x132e0
454409000: system.memobj: Got response for addr 0x132e0
454409000: system.memobj: Got request for addr 0x132e8
454458000: system.memobj: Got response for addr 0x132e8
454458000: system.memobj: Got request for addr 0x132e8
454507000: system.memobj: Got response for addr 0x132e8
Exiting @ tick 454507000 because exiting with last active thread context
