gem5 Simulator System.  http://gem5.org
gem5 is copyrighted software; use the --copyright option for details.

gem5 compiled Apr 27 2020 14:12:36
gem5 started Apr 27 2020 14:14:46
gem5 executing on workstation, pid 9213
command line: build/X86/gem5.opt --debug-flags=Hello configs/learning_gem5/modifying-extending/run_hello.py

Global frequency set at 1000000000000 ticks per second
      0: hello: Created the hello object
Beginning simulation!
Exiting @ tick 18446744073709551615 because simulate() limit reached
