gem5 Simulator System.  http://gem5.org
gem5 is copyrighted software; use the --copyright option for details.

gem5 compiled Apr 25 2020 14:57:01
gem5 started Apr 25 2020 15:00:52
gem5 executing on workstation, pid 4270
command line: build/X86/gem5.opt configs/learning_gem5/modifying-extending/simple_script.py

Global frequency set at 1000000000000 ticks per second
