gem5 Simulator System.  http://gem5.org
gem5 is copyrighted software; use the --copyright option for details.

gem5 compiled Mar 23 2020 14:17:48
gem5 started Apr 17 2020 12:42:34
gem5 executing on workstation, pid 9877
command line: build/X86/gem5.opt configs/tutorial/simple.py

Global frequency set at 1000000000000 ticks per second
Begin simulation
Hello world!
Exiting @ tick 454507000 because exiting with last active thread context
